*HEADING
cubit(sers/dudzinsm/Projects/oFEM/examples/eddyCurrent/coax.inp): 02/22/2017: 13
version: 16.0.3
**
********************************** P A R T S **********************************
*PART, NAME=Part-Default
**
********************************** N O D E S **********************************
*NODE, NSET=ALLNODES
       1,   -1.228669e-03,   -3.982914e-03
       2,   -1.083362e-03,   -3.850497e-03
       3,   -1.273947e-03,   -3.791709e-03
       4,   -4.653303e-03,    1.203100e-03
       5,   -4.826584e-03,    1.300089e-03
       6,   -4.823800e-03,    1.098833e-03
       7,   -4.826795e-03,    2.300000e-03
       8,   -5.000000e-03,    2.400000e-03
       9,   -5.000000e-03,    2.200000e-03
      10,   -8.261016e-04,   -4.086692e-03
      11,   -8.900843e-04,   -3.899712e-03
      12,   -1.028529e-03,   -4.039843e-03
      13,    3.400001e-03,    4.653590e-03
      14,    3.499955e-03,    4.480341e-03
      15,    3.600005e-03,    4.653585e-03
      16,    4.826795e-03,   -2.300000e-03
      17,    4.826795e-03,   -2.500000e-03
      18,    5.000000e-03,   -2.400000e-03
      19,   -4.164885e-04,   -4.146706e-03
      20,   -2.989205e-04,   -3.988815e-03
** ... 2914 like lines cut
**
********************************** E L E M E N T S ****************************
*ELEMENT, TYPE=STRI3, ELSET=Aussenraum
       1,       1,       2,       3
       2,       4,       5,       6
       3,       7,       8,       9
       4,      10,      11,      12
       5,      13,      14,      15
       6,      16,      17,      18
       7,      19,      20,      21
       8,      22,      23,      24
       9,      25,      26,      27
      10,      28,      29,      30
      11,      31,      32,      33
      12,      34,      35,      36
      13,      37,      38,      39
      14,      40,      41,      42
      15,      43,      21,      44
      16,      45,      46,      47
      17,       6,      48,      49
      18,      50,      51,      52
      19,      53,      54,      55
      20,      56,      57,      58
** ... 2730 like lines cut
*ELEMENT, TYPE=STRI3, ELSET=Innenleiter
    2751,    1539,    1540,    1541
    2752,    1542,    1543,    1544
    2753,    1545,    1546,    1547
    2754,    1548,    1542,    1544
    2755,    1549,    1550,    1551
    2756,    1552,    1553,    1554
    2757,    1555,    1556,    1557
    2758,    1558,    1559,    1560
    2759,    1550,    1539,    1541
    2760,    1540,    1561,    1541
    2761,    1562,    1563,    1564
    2762,    1565,    1566,    1567
    2763,    1568,    1562,    1569
    2764,    1570,    1571,    1572
    2765,    1573,    1574,    1553
    2766,    1566,    1565,    1575
    2767,    1549,    1576,    1577
    2768,    1576,    1578,    1579
    2769,    1572,    1571,    1580
    2770,    1581,    1582,    1583
** ... 155 like lines cut
*ELEMENT, TYPE=STRI3, ELSET=Aussenleiter
    2926,    1643,    1644,    1645
    2927,    1646,    1647,      20
    2928,    1648,    1649,    1650
    2929,    1651,    1652,    1653
    2930,     165,    1654,    1655
    2931,     165,    1655,     166
    2932,    1656,    1657,    1658
    2933,    1659,     562,     586
    2934,     591,    1660,    1661
    2935,    1662,    1663,      46
    2936,    1664,    1665,     970
    2937,    1666,    1667,    1668
    2938,    1653,    1669,    1651
    2939,    1670,    1671,    1672
    2940,    1673,    1674,    1675
    2941,    1676,     515,     549
    2942,      11,    1677,       2
    2943,     972,     987,    1678
    2944,     871,    1679,    1680
    2945,    1681,    1682,    1683
** ... 1729 like lines cut
*ELEMENT, TYPE=STRI3, ELSET=Dielektrikum
    4675,    2494,    2495,    2496
    4676,    2497,    2498,    2499
    4677,    2500,    1610,    1539
    4678,    2097,    2501,    1821
    4679,    2502,    2503,    2504
    4680,    2505,    2506,    2507
    4681,    1735,    2508,    2509
    4682,    2510,    2511,    1970
    4683,    2512,    2513,    2514
    4684,    2001,    1984,    2515
    4685,    2511,    2516,    1901
    4686,    1891,    2517,    2518
    4687,    2519,    2501,    2097
    4688,    2520,    2521,    2522
    4689,    1567,    2523,    1565
    4690,    2524,    2525,    2526
    4691,    2527,    1585,    1603
    4692,    1619,    1613,    2528
    4693,    2529,    2530,    2531
    4694,    1628,    1616,    2532
** ... 972 like lines cut
**
********************************** S I D E S E T S **********************************
*ELSET, ELSET=Umrandung_E1
       8,      11,      20,      24,      25,      28,      39,      42,      80,      85,
      96,     112,     115,     118,     119,     128,     139,     140,     141,     161,
     175,     182,     185,     191,     193,     205,     237,     267,     272,     275,
     282,     284,     288,     295,     304,     305,     312,     313,     328,     337,
     358,     359,     362,     386,     398,     423,     435,     457,     458,     462,
     467,     469,     471,     487,     497,     517,     528,     530,     537,     562,
     572,     577,     581,     638,     649,     656,     673,     678,     680,     682,
     686,     692,     701,     705,     713,     723,     726,     729,     731,     734,
     741,     745,     779,     781,     789,     825,     875,     894,     900,     916,
     924,     925,     928,     941,     955,     957,     961
*ELSET, ELSET=Umrandung_E2
       3,      17,      29,      45,      53,      65,      78,      94,     109,     110,
     123,     144,     150,     155,     157,     159,     167,     207,     212,     225,
     238,     241,     298,     325,     335,     338,     342,     346,     352,     364,
     375,     381,     399,     407,     411,     414,     417,     418,     422,     426,
     473,     477,     522,     539,     550,     551,     580,     594,     600,     604,
     607,     614,     622,     626,     629,     651,     704,     759,     771,     792,
     795,     800,     810,     815,     821
*ELSET, ELSET=Umrandung_E3
       8,      19,      22,      23,      25,      45,      92,     194,     203,     251,
     259,     263,     276,     287,     322,     327,     328,     331,     373,     424,
     436,     476,     484,     588,     720,     816,     818,     823,     827,     831,
     836,     840,     844,     852,     869,     880,     945,     953
*SURFACE, NAME=Umrandung
Umrandung_E1, E1
Umrandung_E2, E2
Umrandung_E3, E3
*ELSET, ELSET=Innenrand_E1
    2755,    2759,    2774,    2796,    2806,    2818,    2826,    4692,    4694,    4695,
    4712,    4828,    4835,    4841,    4842,    4852,    4870,    4934
*ELSET, ELSET=Innenrand_E2
    2752,    2773,    2775,    2782,    2802,    2803,    2804,    2808,    2834,    4677,
    4691,    4703,    4733,    4749,    4767,    4770,    4776,    4783,    4888,    4893,
    4898,    4982
*ELSET, ELSET=Innenrand_E3
    2762,    2763,    2764,    2767,    2771,    2778,    2785,    2788,    2795,    2798,
    2811,    2819,    2827,    2837,    2838,    4689,    4763,    4766,    4772,    4788,
    4950,    4962
*SURFACE, NAME=Innenrand
Innenrand_E1, E1
Innenrand_E2, E2
Innenrand_E3, E3
*ELSET, ELSET=Zwischenrand_E1
    2929,    3039,    3043,    3054,    3089,    3113,    3122,    3155,    3237,    3241,
    4684,    4714,    4729,    4753,    4785,    4817,    4821,    4825,    4904,    4905,
    4928,    4930,    4948,    4956,    4971,    4972,    4976,    4978,    4987,    4998,
    5005
*ELSET, ELSET=Zwischenrand_E2
    2940,    2945,    2947,    2951,    2991,    3011,    3020,    3021,    3033,    3065,
    3069,    3074,    3078,    3088,    3102,    3112,    3129,    3130,    3143,    3179,
    3186,    3193,    3200,    3201,    3225,    3231,    3284,    3300,    3303,    3315,
    3335,    3367,    3371,    3398,    3426,    3441,    3454,    3473,    3481,    3485,
    3504,    3511,    3537,    4696,    4698,    4701,    4707,    4709,    4725,    4737,
    4738,    4739,    4750,    4752,    4768,    4787,    4791,    4807,    4829,    4833,
    4837,    4839,    4848,    4851,    4855,    4863,    4879,    4900,    4919
*ELSET, ELSET=Zwischenrand_E3
    2939,    2965,    2972,    2989,    2990,    2995,    2996,    2998,    3018,    3045,
    3072,    3121,    3128,    3164,    3169,    3171,    3181,    3209,    3245,    3263,
    3325,    3357,    3375,    3402,    3430,    3436,    4678,    4735,    4740,    4744,
    4751,    4754,    4756,    4757,    4765,    4778,    4781,    4789,    4800,    4801,
    4873,    4884,    4902,    4903,    4906,    4912,    4915,    4918,    4922,    4924,
    4967,    4975,    4985,    4988,    4989,    4993,    4995,    5002
*SURFACE, NAME=Zwischenrand
Zwischenrand_E1, E1
Zwischenrand_E2, E2
Zwischenrand_E3, E3
*ELSET, ELSET=Aussenrand_E1
      16,      26,     209,     249,     264,     269,     273,     277,     291,     486,
     853,     859,     860,     867,     871,     877,    2943,    2949,    2953,    2961,
    2983,    2992,    2993,    2997,    3006,    3013,    3027,    3034,    3037,    3038,
    3087,    3132,    3168,    3175,    3190,    3191,    3203,    3210,    3222,    3256,
    3264,    3267,    3289,    3290,    3377,    3379,    3380,    3382,    3384,    3385,
    3392,    3394,    3397,    3404,    3409,    3428,    3440,    3443,    3464,    3544
*ELSET, ELSET=Aussenrand_E2
       1,       7,      15,      63,      67,      76,     105,     107,     108,     114,
     125,     135,     171,     174,     176,     177,     197,     217,     219,     221,
     229,     231,     235,     285,     294,     297,     301,     302,     311,     316,
     333,     341,     384,     395,     431,     434,     445,     453,     454,     459,
     474,     489,     505,     516,     534,     663,     670,     681,     684,     689,
     694,     700,     703,     707,     711,     739,     751,     753,     770,     882,
     886,     901,     908,     911,     926,     937,    2933,    2941,    2968,    2978,
    3007,    3044,    3046,    3083,    3096,    3148,    3163,    3195,    3232,    3234,
    3250
*ELSET, ELSET=Aussenrand_E3
       9,      18,      43,      70,      99,     100,     113,     122,     136,     170,
     202,     224,     239,     330,     339,     356,     367,     369,     376,     396,
     420,     544,     545,     553,     568,     579,     585,     598,     605,     609,
     612,     615,     621,     625,     627,     633,     636,     637,     645,     653,
     796,     797,     805,     813,    2931,    2942,    2957,    2960,    2967,    2979,
    2984,    3015,    3017,    3022,    3048,    3049,    3071,    3077,    3079,    3091,
    3104,    3105,    3109,    3133,    3137,    3166,    3173,    3184,    3205,    3219,
    3224,    3227,    3270,    3281,    3291,    3296,    3317,    3319,    3329,    3331,
    3334,    3337,    3340,    3343,    3352,    3354,    3363,    3369,    3399,    3424,
    3435,    3445,    3451,    3457,    3465,    3476,    3478,    3484,    3490,    3495,
    3498,    3500,    3505,    3506,    3514,    3515,    3519,    3522,    3525,    3527,
    3540
*SURFACE, NAME=Aussenrand
Aussenrand_E1, E1
Aussenrand_E2, E2
Aussenrand_E3, E3
**
********************************** P R O P E R T I E S ************************
*SHELL SECTION, ELSET=Aussenraum, SECTION INTEGRATION=SIMPSON, MATERIAL=Default-Steel
1.000000e+00
*SHELL SECTION, ELSET=Innenleiter, SECTION INTEGRATION=SIMPSON, MATERIAL=Default-Steel
1.000000e+00
*SHELL SECTION, ELSET=Aussenleiter, SECTION INTEGRATION=SIMPSON, MATERIAL=Default-Steel
1.000000e+00
*SHELL SECTION, ELSET=Dielektrikum, SECTION INTEGRATION=SIMPSON, MATERIAL=Default-Steel
1.000000e+00
**
*END PART
**
**
**
********************************** E N D   P A R T S **********************************
**
**
********************************** A S S E M B L Y ************************************
**
*ASSEMBLY, NAME=ASSEMBLY1
**
*INSTANCE, NAME=Part-Default_1, PART=Part-Default
*END INSTANCE
**
*END ASSEMBLY
**
**
**
*MATERIAL, NAME = Default-Steel
*ELASTIC, TYPE=ISOTROPIC
2.068000e+05, 2.900000e-01
*DENSITY
7.000000e-06
*CONDUCTIVITY,TYPE=ISO
4.500000e-02
*SPECIFIC HEAT
5.000000e+02
**
**
************************************** H I S T O R Y *************************************
**
*PREPRINT
**
**************************************** S T E P 1 ***************************************
*STEP,INC=100,NAME=Default Set
**
*STATIC
1, 1, 1e-05, 1
**
**
**
**
*END STEP
