*HEADING
cubit(ocuments/Projects/OFEM/oFEM/examples/eddyCurrent/coax.inp): 08/21/2017: 14
version: 16.1.3
**
********************************** P A R T S **********************************
*PART, NAME=Part-Default
**
********************************** N O D E S **********************************
*NODE, NSET=ALLNODES
       1,    1.000000e-03,    0.000000e+00
       2,    9.795300e-04,    2.012985e-04
       3,    9.189578e-04,    3.943559e-04
       4,    8.207635e-04,    5.712681e-04
       5,    6.889669e-04,    7.247928e-04
       6,    5.289642e-04,    8.486442e-04
       7,    3.473052e-04,    9.377521e-04
       8,    1.514280e-04,    9.884683e-04
       9,   -5.064923e-05,    9.987165e-04
      10,   -2.506524e-04,    9.680772e-04
      11,   -4.403942e-04,    8.978045e-04
      12,   -6.121059e-04,    7.907758e-04
      13,   -7.587582e-04,    6.513724e-04
      14,   -8.743466e-04,    4.853021e-04
      15,   -9.541393e-04,    2.993630e-04
      16,   -9.948693e-04,    1.011684e-04
      17,   -9.948693e-04,   -1.011684e-04
      18,   -9.541393e-04,   -2.993630e-04
      19,   -8.743466e-04,   -4.853021e-04
      20,   -7.587582e-04,   -6.513724e-04
** ... 2671 like lines cut
**
********************************** E L E M E N T S ****************************
*ELEMENT, TYPE=STRI3, ELSET=Aussenraum
     210,     148,     448,     147
     211,     179,     449,     178
     212,     211,     450,     210
     213,     223,     451,     222
     214,     452,     451,     223
     215,     453,     452,     224
     216,     454,     453,     225
     217,     455,     454,     226
     218,     456,     455,     227
     219,     457,     456,     228
     220,     458,     457,     229
     221,     459,     458,     230
     222,     460,     459,     231
     223,     461,     460,     232
     224,     462,     461,     233
     225,     463,     462,     234
     226,     464,     463,     235
     227,     239,     465,     238
     228,     241,     466,     240
     229,     250,     467,     249
** ... 2766 like lines cut
*ELEMENT, TYPE=STRI3, ELSET=Innenleiter
       1,       1,      32,      31
       2,      28,      29,      33
       3,      34,       2,       3
       4,      35,       5,       6
       5,      36,       6,       7
       6,      37,      59,       4
       7,      38,      52,       8
       8,      39,      49,      10
       9,      40,      13,      14
      10,      41,      12,      13
      11,      93,     108,      63
      12,      18,      44,      17
      13,      46,      16,      17
      14,      11,      47,      39
      15,      48,      45,      19
      16,       9,      49,      38
      17,      51,      50,      21
      18,      52,       7,       8
      19,      71,      48,      50
      20,      54,      53,      23
** ... 189 like lines cut
*ELEMENT, TYPE=STRI3, ELSET=Aussenleiter
    2996,     127,     122,    1757
    2997,    1758,     157,     156
    2998,    1759,     127,    1757
    2999,     133,     132,    1762
    3000,    1763,     133,    1762
    3001,     136,     135,    1764
    3002,    1765,     136,    1764
    3003,    1767,     140,    1847
    3004,     149,     148,    1772
    3005,    1773,     149,    1772
    3006,    1775,     152,    1774
    3007,     155,     154,    1776
    3008,    1777,    1757,     122
    3009,    1778,     157,    1758
    3010,    1780,     160,    1779
    3011,    1782,     163,    1781
    3012,     168,     167,    1784
    3013,    1785,     168,    1784
    3014,    1786,     170,    1878
    3015,    1788,     180,     179
** ... 1339 like lines cut
*ELEMENT, TYPE=STRI3, ELSET=Dielektrikum
    4355,    1698,    1697,    2334
    4356,    1756,    2335,    1678
    4357,    1754,    2336,    1755
    4358,    2337,    1744,    1743
    4359,    2338,    1678,    2335
    4360,    2339,    1683,    1682
    4361,    2340,    1680,    1679
    4362,    2341,       5,       4
    4363,    2342,      29,      28
    4364,    2343,      28,      27
    4365,    2344,       1,      31
    4366,    2345,      31,      30
    4367,    2346,      27,      26
    4368,    2536,    2535,    2344
    4369,    2349,      26,      25
    4370,    2350,      30,      29
    4371,    2351,    1683,    2339
    4372,    2352,      25,      24
    4373,    2353,    1684,    2351
    4374,    2355,    2527,    2526
** ... 806 like lines cut
**
********************************** S I D E S E T S **********************************
*ELSET, ELSET=Umrandung_E1
     290,     346,     400
*ELSET, ELSET=Umrandung_E2
     234,     270,     291,     294,     332,     348,     349,     351,     380,     401,
     403,     434,     443,     445,     447,     453,     459,     460,     463,     465,
     466,     470,     473,     475,     478,     479,     480,     482,     484,     485,
     486,     488,     490,     492,     496,     498,     503,     505,     507,     509,
     511,     515,     516,     518,     520,     523,     525,     527,     538,     541,
     547,     550,     555,     563,     568,     571,     577,     579,     582,     587,
     591,     595,     598,     602,     605,     608,     610,     613,     614,     615,
     618,     619,     620,     622,     624,     626,     628,     629,     631,     636,
     639,     643,     650,     652,     659,     664,     666,     668,     671,     673,
     675,     681,     686,     690,     695,     710,     718,     719,     722,     726,
     732,     736,     740,     745,     746,     748,     749,     751,     755,     760,
     762,     763,     765,     770,     771,     775,     777,     779,     781,     782,
     783,     785,     787,     796,     799,     800,     807,     811,     814,     819,
     826,     828,     832,     838,     842,     845,     865,     868,     873,     881,
     886,     889,     895,     897,     900,     905,     909,     913,     916,     920,
     923,     926,     928,     931,     932,     933,     936,     937,     938,     940,
     942,     944,     945,     948,     955,     963,     974,     976,     979,     986,
     991,     996,     998,    1005,    1010,    1013,    1015,    1018,    1021,    1025,
    1042,    1046,    1048,    1052,    1061,    1063,    1067
*ELSET, ELSET=Umrandung_E3
     234,     286,     290,     301,     343,     346,     396,     400,     407,     441
*SURFACE, NAME=Umrandung
Umrandung_E1, E1
Umrandung_E2, E2
Umrandung_E3, E3
*ELSET, ELSET=Innenrand_E1
       2
*ELSET, ELSET=Innenrand_E2
       3,       4,       5,       9,      10,      13,      18,      27,      28,      29,
      30,      32,      33,      37,      39,      41,      46,      51,      52,      53,
      54,      57,      61,      62,      65,      70,      71,    4362,    4363,    4364,
    4365,    4366,    4367,    4369,    4370,    4372,    4375,    4378,    4380,    4382,
    4383,    4386,    4388,    4389,    4391,    4392,    4393,    4397,    4398,    4401,
    4402,    4403,    4405,    4407,    4414,    4415,    4419,    4421
*ELSET, ELSET=Innenrand_E3
       1,      12,      24
*SURFACE, NAME=Innenrand
Innenrand_E1, E1
Innenrand_E2, E2
Innenrand_E3, E3
*ELSET, ELSET=Zwischenrand_E1
    4355
*ELSET, ELSET=Zwischenrand_E2
    3042,    3043,    3044,    3045,    3047,    3049,    3050,    3052,    3053,    3055,
    3056,    3057,    3059,    3060,    3062,    3064,    3065,    3067,    3068,    3070,
    3072,    3073,    3075,    3076,    3077,    3079,    3080,    3082,    3084,    3085,
    3087,    3089,    3091,    3092,    3093,    3094,    3096,    3097,    3098,    3100,
    3101,    3103,    3105,    3106,    3108,    3109,    3111,    3113,    3114,    3116,
    3117,    3119,    3120,    3121,    3123,    3124,    3126,    3128,    3129,    3131,
    3132,    3134,    3135,    3137,    3138,    3139,    3141,    3142,    3144,    3146,
    3147,    3149,    3151,    3153,    3154,    3156,    3157,    3160,    3161,    4358,
    4360,    4361,    4423,    4424,    4425,    4426,    4427,    4428,    4429,    4431,
    4432,    4433,    4439,    4441,    4442,    4448,    4458,    4462,    4464,    4465,
    4468,    4476,    4481,    4483,    4484,    4486,    4493,    4495,    4498,    4501,
    4503,    4505,    4507,    4508,    4511,    4515,    4516,    4522,    4523,    4524,
    4527,    4528,    4529,    4534,    4539,    4540,    4541,    4543,    4550,    4551,
    4553,    4554,    4561,    4564,    4565,    4567,    4568,    4574,    4575,    4580,
    4581,    4590,    4591,    4600,    4601,    4608,    4609,    4612,    4620,    4622,
    4624,    4626,    4630,    4631,    4636
*ELSET, ELSET=Zwischenrand_E3
    4356,    4357
*SURFACE, NAME=Zwischenrand
Zwischenrand_E1, E1
Zwischenrand_E2, E2
Zwischenrand_E3, E3
*ELSET, ELSET=Aussenrand_E1
    2996,    2999,    3001,    3004,    3007,    3012,    3018,    3019,    3021,    3022,
    3029,    3038
*ELSET, ELSET=Aussenrand_E2
     231,     232,     233,     237,     241,     243,     244,     248,     249,     252,
     255,     256,     260,     261,     262,     263,     264,     265,     266,     268,
     272,     274,     276,     277,     278,     279,     280,     282,     284,     285,
     287,     289,     293,     297,     299,     300,     304,     306,     308,     309,
     311,     312,     315,     316,     318,     319,     321,     323,     325,     326,
     328,     330,     331,     333,     336,     337,     339,     340,     341,     342,
     345,     347,     353,     355,     357,     358,     361,     362,     364,     367,
     368,     370,     371,     372,     373,     374,     375,     376,     378,     382,
     384,     386,     387,     388,     389,     390,     392,     394,     395,     397,
     399,     412,     414,     416,     418,     420,     421,     423,     425,     431,
     436,     442,     444,     446,     448,     449,     450,     452,     455,     457,
     458,     461,     462,     464,     467,     469,     472,     588,     906,    2997,
    3015,    3162,    3163,    3164,    3166,    3167,    3170,    3171,    3172,    3174,
    3176,    3177,    3179,    3182,    3183,    3184,    3186,    3190,    3195,    3197,
    3198,    3201,    3202,    3204,    3206,    3208,    3211,    3212,    3215,    3216,
    3219,    3221,    3222,    3224,    3226,    3227,    3228,    3229,    3231,    3234,
    3237,    3240,    3241,    3243,    3244,    3248,    3249,    3252,    3253,    3254,
    3256,    3258,    3260,    3262,    3263,    3264,    3267,    3268,    3270,    3271,
    3274,    3276,    3277,    3278,    3280,    3282,    3284,    3285,    3287,    3288,
    3291,    3292,    3293,    3294,    3296,    3298,    3299,    3302,    3303,    3305,
** ... 4 like lines cut
*ELSET, ELSET=Aussenrand_E3
     210,     211,     212,     213,     227,     228,     229
*SURFACE, NAME=Aussenrand
Aussenrand_E1, E1
Aussenrand_E2, E2
Aussenrand_E3, E3
**
********************************** P R O P E R T I E S ************************
*SHELL SECTION, ELSET=Aussenraum, SECTION INTEGRATION=SIMPSON, MATERIAL=Default-Steel
1.000000e+00
*SHELL SECTION, ELSET=Innenleiter, SECTION INTEGRATION=SIMPSON, MATERIAL=Default-Steel
1.000000e+00
*SHELL SECTION, ELSET=Aussenleiter, SECTION INTEGRATION=SIMPSON, MATERIAL=Default-Steel
1.000000e+00
*SHELL SECTION, ELSET=Dielektrikum, SECTION INTEGRATION=SIMPSON, MATERIAL=Default-Steel
1.000000e+00
**
*END PART
**
**
**
********************************** E N D   P A R T S **********************************
**
**
********************************** A S S E M B L Y ************************************
**
*ASSEMBLY, NAME=ASSEMBLY1
**
*INSTANCE, NAME=Part-Default_1, PART=Part-Default
*END INSTANCE
**
*END ASSEMBLY
**
**
**
*MATERIAL, NAME = Default-Steel
*ELASTIC, TYPE=ISOTROPIC
2.068000e+05, 2.900000e-01
*DENSITY
7.000000e-06
*CONDUCTIVITY,TYPE=ISO
4.500000e-02
*SPECIFIC HEAT
5.000000e+02
**
**
************************************** H I S T O R Y *************************************
**
*PREPRINT
**
**************************************** S T E P 1 ***************************************
*STEP,INC=100,NAME=Default Set
**
*STATIC
1, 1, 1e-05, 1
**
**
**
**
*END STEP
