*HEADING
cubit(FEM/examples/eddyCurrent/CoilsAndPlate/coil_plate_new.inp): 04/13/2018: 13
version: 16.3.4
**
********************************** P A R T S **********************************
*PART, NAME=Part-Default
**
********************************** N O D E S **********************************
*NODE, NSET=ALLNODES
       1,    1.500000e-01,    5.000000e-01
       2,    1.000000e-01,    5.000000e-01
       3,    1.000000e-01,    3.000000e-01
       4,    1.500000e-01,    3.000000e-01
       5,    1.000000e-01,    4.365486e-01
       6,    1.000000e-01,    3.635477e-01
       7,    1.500000e-01,    3.634514e-01
       8,    1.500000e-01,    4.364523e-01
       9,    2.500000e-01,    5.000000e-01
      10,    2.000000e-01,    5.000000e-01
      11,    2.000000e-01,    3.000000e-01
      12,    2.500000e-01,    3.000000e-01
      13,    2.000000e-01,    4.365486e-01
      14,    2.000000e-01,    3.635477e-01
      15,    2.500000e-01,    3.634514e-01
      16,    2.500000e-01,    4.364523e-01
      17,    3.500000e-01,    5.000000e-01
      18,    3.000000e-01,    5.000000e-01
      19,    3.000000e-01,    3.000000e-01
      20,    3.500000e-01,    3.000000e-01
** ... 2623 like lines cut
**
********************************** E L E M E N T S ****************************
*ELEMENT, TYPE=STRI3, ELSET=coil1
       1,     722,       7,     707
       2,     707,     191,     723
       3,     723,     195,     722
       4,     722,     707,     723
       5,     718,     194,     721
       6,     721,     195,     723
       7,     724,     726,     728
       8,     728,     193,     724
       9,     726,     196,     728
      10,     724,     189,     726
      11,     727,     715,     728
      12,     728,     196,     727
      13,     715,     193,     728
      14,     727,       8,     715
      15,     708,     725,     726
      16,     726,     189,     708
      17,     725,     196,     726
      18,     708,       7,     725
      19,     713,     701,     724
      20,     724,     193,     713
** ... 76 like lines cut
*ELEMENT, TYPE=STRI3, ELSET=coil2
      97,     766,      15,     751
      98,     751,     204,     767
      99,     767,     208,     766
     100,     766,     751,     767
     101,     762,     207,     765
     102,     765,     208,     767
     103,     768,     770,     772
     104,     772,     206,     768
     105,     770,     209,     772
     106,     768,     202,     770
     107,     771,     759,     772
     108,     772,     209,     771
     109,     759,     206,     772
     110,     771,      16,     759
     111,     752,     769,     770
     112,     770,     202,     752
     113,     769,     209,     770
     114,     752,      15,     769
     115,     757,     745,     768
     116,     768,     206,     757
** ... 76 like lines cut
*ELEMENT, TYPE=STRI3, ELSET=coil3
     193,     810,      23,     795
     194,     795,     217,     811
     195,     811,     221,     810
     196,     810,     795,     811
     197,     806,     220,     809
     198,     809,     221,     811
     199,     812,     814,     816
     200,     816,     219,     812
     201,     814,     222,     816
     202,     812,     215,     814
     203,     815,     803,     816
     204,     816,     222,     815
     205,     803,     219,     816
     206,     815,      24,     803
     207,     796,     813,     814
     208,     814,     215,     796
     209,     813,     222,     814
     210,     796,      23,     813
     211,     801,     789,     812
     212,     812,     219,     801
** ... 76 like lines cut
*ELEMENT, TYPE=STRI3, ELSET=coil4
     289,     854,      31,     839
     290,     839,     230,     855
     291,     855,     234,     854
     292,     854,     839,     855
     293,     850,     233,     853
     294,     853,     234,     855
     295,     856,     858,     860
     296,     860,     232,     856
     297,     858,     235,     860
     298,     856,     228,     858
     299,     859,     847,     860
     300,     860,     235,     859
     301,     847,     232,     860
     302,     859,      32,     847
     303,     840,     857,     858
     304,     858,     228,     840
     305,     857,     235,     858
     306,     840,      31,     857
     307,     845,     833,     856
     308,     856,     232,     845
** ... 76 like lines cut
*ELEMENT, TYPE=STRI3, ELSET=plate
     385,     944,      46,     903
     386,     903,     250,     945
     387,     945,     261,     944
     388,     944,     903,     945
     389,     941,     245,     943
     390,     943,     261,     945
     391,     945,     250,     941
     392,     941,     943,     945
     393,     917,      39,     897
     394,     897,     248,     946
     395,     946,     255,     917
     396,     917,     897,     946
     397,     904,      46,     947
     398,     947,     262,     948
     399,     956,     958,     960
     400,     960,     259,     956
     401,     958,     264,     960
     402,     956,     237,     958
     403,     959,     933,     960
     404,     960,     264,     959
** ... 204 like lines cut
*ELEMENT, TYPE=STRI3, ELSET=space
     609,    2295,     336,    2297
     610,    2297,     617,    2299
     611,    2299,     493,    2295
     612,    2295,    2297,    2299
     613,    2300,     620,    2301
     614,    2301,     618,    2302
     615,    2302,     179,    2300
     616,    2300,    2301,    2302
     617,     620,    2303,    2304
     618,    2303,     176,    2304
     619,    2304,     618,    2301
     620,     620,    2304,    2301
     621,     619,    2307,    2305
     622,    2307,     618,    2305
     623,    2305,     147,    2306
     624,     619,    2305,    2306
     625,    2302,     618,    2307
     626,    2307,     619,    2308
     627,    2308,     179,    2302
     628,    2302,    2307,    2308
** ... 4476 like lines cut
**
********************************** S I D E S E T S **********************************
*ELSET, ELSET=coil1_E1
       1,      14,      17,      25,      30,      33,      34,      41,      50,      58,
      61,      74,      77,      90,      93,      94,    2869,    2878,    2917,    2926,
    2933,    2942,    2997,    3006,    3013,    3022,    3029,    3038,    3045,    3049,
    3050,    3110,    3113
*ELSET, ELSET=coil1_E2
       3,      12,      18,      27,      29,      33,      35,      43,      49,      57,
      63,      73,      79,      89,      93,      95,    2871,    2877,    2919,    2925,
    2935,    2941,    2999,    3005,    3015,    3021,    3031,    3037,    3047,    3109,
    3115
*SURFACE, NAME=coil1
coil1_E1, E1
coil1_E2, E2
*ELSET, ELSET=coil2_E1
      97,     110,     113,     121,     126,     129,     130,     137,     146,     154,
     157,     170,     173,     186,     189,     190,    2709,    2718,    2730,    2733,
    2757,    2766,    2805,    2814,    2826,    2829,    2837,    2846,    2950,    2953,
    2982,    2985
*ELSET, ELSET=coil2_E2
      99,     108,     114,     123,     125,     129,     131,     139,     145,     153,
     159,     169,     175,     185,     189,     191,    2711,    2717,    2729,    2735,
    2759,    2765,    2807,    2813,    2825,    2831,    2839,    2845,    2949,    2955,
    2981,    2987
*SURFACE, NAME=coil2
coil2_E1, E1
coil2_E2, E2
*ELSET, ELSET=coil3_E1
     193,     206,     209,     217,     222,     225,     226,     233,     242,     250,
     253,     266,     269,     282,     285,     286,    2485,    2489,    2490,    2570,
    2573,    2634,    2637,    2677,    2686,    2693,    2702,    2742,    2745,    2790,
    2793,    4326,    4329
*ELSET, ELSET=coil3_E2
     195,     204,     210,     219,     221,     225,     227,     235,     241,     249,
     255,     265,     271,     281,     285,     287,    2487,    2569,    2575,    2633,
    2639,    2679,    2685,    2695,    2701,    2741,    2747,    2789,    2795,    4325,
    4331
*SURFACE, NAME=coil3
coil3_E1, E1
coil3_E2, E2
*ELSET, ELSET=coil4_E1
     289,     302,     305,     313,     318,     321,     322,     329,     338,     346,
     349,     362,     365,     378,     381,     382,    2469,    2478,    2538,    2541,
    2582,    2585,    2598,    2601,    2614,    2617,    3238,    3241,    3510,    3513,
    4406,    4409
*ELSET, ELSET=coil4_E2
     291,     300,     306,     315,     317,     321,     323,     331,     337,     345,
     351,     361,     367,     377,     381,     383,    2471,    2477,    2537,    2543,
    2581,    2587,    2597,    2603,    2613,    2619,    3237,    3243,    3509,    3515,
    4405,    4411
*SURFACE, NAME=coil4
coil4_E1, E1
coil4_E2, E2
*ELSET, ELSET=plate_E1
     385,     398,     406,     409,     422,     425,     438,     446,     449,     462,
     465,     478,     481,     490,     493,     506,     509,     522,     525,     526,
     529,     538,     541,     558,     561,     569,     570,     573,     578,     590,
     593,     606,    1766,    1769,    1787,    1791,    1798,    1801,    1819,    1823,
    1867,    1871,    2379,    2383,    2426,    2429,    2907,    2911,    3494,    3497,
    3750,    3753,    3798,    3801,    3814,    3817,    3910,    3913,    4006,    4009,
    4246,    4249
*ELSET, ELSET=plate_E2
     387,     397,     404,     410,     420,     426,     436,     445,     451,     461,
     467,     477,     483,     489,     495,     505,     511,     521,     525,     527,
     531,     537,     543,     557,     563,     569,     571,     575,     577,     589,
     595,     605,    1765,    1771,    1786,    1790,    1797,    1803,    1818,    1822,
    1866,    1870,    2378,    2382,    2425,    2431,    2906,    2910,    3493,    3499,
    3749,    3755,    3797,    3803,    3813,    3819,    3909,    3915,    4005,    4011,
    4245,    4251
*SURFACE, NAME=plate
plate_E1, E1
plate_E2, E2
*ELSET, ELSET=Dirichlet_E1
     522,     525,    1754,    1757,    1770,    1773,    1774,    1829,    1830,    1833,
    1838,    1878,    1881,    1914,    1917,    1978,    1981,    1989,    1994,    1997,
    1998,    2005,    2014,    2022,    2025,    2101,    2106,    2109,    2110,    2118,
    2121,    2134,    2137,    2218,    2221,    2229,    2234,    2237,    2238,    2262,
    2265,    2310,    2313,    2326,    2329,    2358,    2361,    2406,    2409,    2422,
    2425,    2454,    2457,    2518,    2521,    2646,    2649,    2854,    2857,    3078,
    3081,    3158,    3161,    3190,    3193,    3206,    3209,    3222,    3225,    3286,
    3289,    3302,    3305,    3318,    3321,    3430,    3433,    3446,    3449,    3574,
    3577,    3702,    3705,    3734,    3737,    3766,    3769,    3894,    3897,    3974,
    3977
*ELSET, ELSET=Dirichlet_E2
     521,     527,    1753,    1759,    1769,    1829,    1831,    1835,    1837,    1877,
    1883,    1913,    1919,    1977,    1983,    1991,    1993,    1997,    1999,    2007,
    2013,    2021,    2027,    2103,    2105,    2109,    2111,    2117,    2123,    2133,
    2139,    2217,    2223,    2231,    2233,    2237,    2239,    2261,    2267,    2309,
    2315,    2325,    2331,    2357,    2363,    2405,    2411,    2421,    2427,    2453,
    2459,    2517,    2523,    2645,    2651,    2853,    2859,    3077,    3083,    3157,
    3163,    3189,    3195,    3205,    3211,    3221,    3227,    3285,    3291,    3301,
    3307,    3317,    3323,    3429,    3435,    3445,    3451,    3573,    3579,    3701,
    3707,    3733,    3739,    3765,    3771,    3893,    3899,    3973,    3979
*SURFACE, NAME=Dirichlet
Dirichlet_E1, E1
Dirichlet_E2, E2
**
********************************** P R O P E R T I E S ************************
*SHELL SECTION, ELSET=coil1, SECTION INTEGRATION=SIMPSON, MATERIAL=Default-Steel
1.000000e+00
*SHELL SECTION, ELSET=coil2, SECTION INTEGRATION=SIMPSON, MATERIAL=Default-Steel
1.000000e+00
*SHELL SECTION, ELSET=coil3, SECTION INTEGRATION=SIMPSON, MATERIAL=Default-Steel
1.000000e+00
*SHELL SECTION, ELSET=coil4, SECTION INTEGRATION=SIMPSON, MATERIAL=Default-Steel
1.000000e+00
*SHELL SECTION, ELSET=plate, SECTION INTEGRATION=SIMPSON, MATERIAL=Default-Steel
1.000000e+00
*SHELL SECTION, ELSET=space, SECTION INTEGRATION=SIMPSON, MATERIAL=Default-Steel
1.000000e+00
**
*END PART
**
**
**
********************************** E N D   P A R T S **********************************
**
**
********************************** A S S E M B L Y ************************************
**
*ASSEMBLY, NAME=ASSEMBLY1
**
*INSTANCE, NAME=Part-Default_1, PART=Part-Default
*END INSTANCE
**
*END ASSEMBLY
**
**
**
*MATERIAL, NAME = Default-Steel
*ELASTIC, TYPE=ISOTROPIC
2.068000e+05, 2.900000e-01
*DENSITY
7.000000e-06
*CONDUCTIVITY,TYPE=ISO
4.500000e-02
*SPECIFIC HEAT
5.000000e+02
**
**
************************************** H I S T O R Y *************************************
**
*PREPRINT
**
**************************************** S T E P 1 ***************************************
*STEP,INC=100,NAME=Default Set
**
*STATIC
1, 1, 1e-05, 1
**
**
**
**
*END STEP
