*HEADING
cubit(nts/Projects/OFEM/oFEM/examples/eddyCurrent/Coax/coax.inp): 04/13/2018: 13
version: 16.3.4
**
********************************** P A R T S **********************************
*PART, NAME=Part-Default
**
********************************** N O D E S **********************************
*NODE, NSET=ALLNODES
       1,    1.000000e-03,    0.000000e+00
       2,    9.795300e-04,    2.012985e-04
       3,    9.189578e-04,    3.943559e-04
       4,    8.207635e-04,    5.712681e-04
       5,    6.889669e-04,    7.247928e-04
       6,    5.289642e-04,    8.486442e-04
       7,    3.473052e-04,    9.377521e-04
       8,    1.514280e-04,    9.884683e-04
       9,   -5.064923e-05,    9.987165e-04
      10,   -2.506524e-04,    9.680772e-04
      11,   -4.403942e-04,    8.978045e-04
      12,   -6.121059e-04,    7.907758e-04
      13,   -7.587582e-04,    6.513724e-04
      14,   -8.743466e-04,    4.853021e-04
      15,   -9.541393e-04,    2.993630e-04
      16,   -9.948693e-04,    1.011684e-04
      17,   -9.948693e-04,   -1.011684e-04
      18,   -9.541393e-04,   -2.993630e-04
      19,   -8.743466e-04,   -4.853021e-04
      20,   -7.587582e-04,   -6.513724e-04
** ... 2679 like lines cut
**
********************************** E L E M E N T S ****************************
*ELEMENT, TYPE=STRI3, ELSET=Aussenraum
     208,     147,     447,     146
     209,     178,     448,     177
     210,     210,     449,     209
     211,     222,     450,     221
     212,     451,     450,     222
     213,     452,     451,     223
     214,     453,     452,     224
     215,     454,     453,     225
     216,     455,     454,     226
     217,     456,     455,     227
     218,     457,     456,     228
     219,     458,     457,     229
     220,     459,     458,     230
     221,     460,     459,     231
     222,     461,     460,     232
     223,     462,     461,     233
     224,     463,     462,     234
     225,     238,     464,     237
     226,     240,     465,     239
     227,     249,     466,     248
** ... 2766 like lines cut
*ELEMENT, TYPE=STRI3, ELSET=Innenleiter
       1,      32,       1,       2
       2,      34,       2,       3
       3,      36,       5,       6
       4,      37,       6,       7
       5,      39,       4,       5
       6,      40,       8,       9
       7,      42,      10,      11
       8,      44,      12,      13
       9,      46,      14,      15
      10,      18,      48,      17
      11,      50,      16,      17
      12,      51,      49,      19
      13,      53,      52,      21
      14,      55,      54,      23
      15,      57,      56,      25
      16,      59,      58,      27
      17,      61,      29,      30
      18,      60,      28,      29
      19,      35,       3,       4
      20,      58,      26,      27
** ... 187 like lines cut
*ELEMENT, TYPE=STRI3, ELSET=Aussenleiter
    2994,     126,     121,    1756
    2995,    1757,     156,     155
    2996,    1758,     126,    1756
    2997,    1761,     131,    1838
    2998,    1765,     137,    1844
    2999,    1766,     139,    1846
    3000,    1768,     142,    1849
    3001,     148,     147,    1771
    3002,    1772,     148,    1771
    3003,    1774,     151,    1773
    3004,     154,     153,    1775
    3005,    1776,    1756,     121
    3006,    1777,     156,    1757
    3007,    1779,     159,    1778
    3008,    1780,     161,    1869
    3009,    1783,     166,    1874
    3010,    1784,     167,    1783
    3011,     173,     172,    1786
    3012,    1787,     179,     178
    3013,    1788,     174,    1882
** ... 1341 like lines cut
*ELEMENT, TYPE=STRI3, ELSET=Dielektrikum
    4355,    1697,    1696,    2334
    4356,    1755,    2335,    1677
    4357,    1753,    2336,    1754
    4358,    2337,    1743,    1742
    4359,    2338,    1677,    2335
    4360,    2339,    1682,    1681
    4361,    2340,    1679,    1678
    4362,    2341,       5,       4
    4363,    2342,      29,      28
    4364,    2343,      28,      27
    4365,    2344,       1,      31
    4366,    2345,      31,      30
    4367,    2346,      27,      26
    4368,    2347,    2542,    2532
    4369,    2349,      26,      25
    4370,    2350,      30,      29
    4371,    2351,    1682,    2339
    4372,    2352,      25,      24
    4373,    2353,    1683,    2351
    4374,    2355,    2527,    2526
** ... 822 like lines cut
**
********************************** S I D E S E T S **********************************
*ELSET, ELSET=Umrandung_E1
     288,     341,     395
*ELSET, ELSET=Umrandung_E2
     232,     289,     292,     343,     344,     346,     396,     398,     433,     435,
     437,     443,     449,     450,     453,     455,     456,     460,     463,     465,
     468,     469,     470,     472,     474,     475,     476,     478,     480,     482,
     486,     488,     493,     495,     497,     499,     501,     505,     506,     508,
     510,     513,     515,     517,     528,     531,     537,     540,     545,     553,
     558,     561,     567,     569,     571,     575,     576,     578,     581,     585,
     586,     589,     593,     596,     599,     601,     604,     605,     606,     609,
     610,     611,     613,     615,     617,     619,     620,     622,     627,     630,
     634,     641,     643,     651,     652,     658,     664,     666,     668,     674,
     679,     683,     688,     703,     707,     712,     713,     716,     720,     726,
     730,     734,     739,     740,     742,     743,     745,     749,     754,     756,
     757,     759,     764,     765,     769,     771,     773,     775,     776,     777,
     779,     781,     790,     793,     794,     801,     805,     808,     813,     820,
     822,     826,     832,     836,     839,     859,     862,     867,     875,     880,
     883,     889,     891,     893,     897,     898,     900,     903,     907,     908,
     911,     915,     918,     921,     923,     926,     927,     928,     931,     932,
     933,     935,     937,     939,     940,     943,     950,     958,     966,     976,
     983,     988,     993,     995,    1002,    1007,    1010,    1012,    1015,    1018,
    1022,    1031,    1040,    1044,    1046,    1050,    1059,    1061,    1065
*ELSET, ELSET=Umrandung_E3
     232,     284,     288,     338,     341,     391,     395,     432
*SURFACE, NAME=Umrandung
Umrandung_E1, E1
Umrandung_E2, E2
Umrandung_E3, E3
*ELSET, ELSET=Innenrand_E2
       1,       2,       3,       4,       5,       6,       7,       8,       9,      11,
      17,      18,      19,      20,      21,      22,      23,      24,      25,      26,
      27,      28,      29,      30,      31,      59,      63,      66,      69,      72,
    4362,    4363,    4364,    4365,    4366,    4367,    4369,    4370,    4372,    4375,
    4377,    4379,    4381,    4382,    4385,    4387,    4388,    4390,    4391,    4392,
    4396,    4397,    4400,    4401,    4403,    4405,    4407,    4415,    4416,    4420,
    4423
*ELSET, ELSET=Innenrand_E3
      10
*SURFACE, NAME=Innenrand
Innenrand_E2, E2
Innenrand_E3, E3
*ELSET, ELSET=Zwischenrand_E1
    4355
*ELSET, ELSET=Zwischenrand_E2
    3038,    3039,    3040,    3041,    3043,    3045,    3046,    3048,    3049,    3051,
    3052,    3053,    3055,    3056,    3058,    3060,    3061,    3063,    3064,    3066,
    3068,    3069,    3071,    3072,    3073,    3075,    3076,    3078,    3080,    3081,
    3083,    3085,    3087,    3088,    3089,    3090,    3092,    3093,    3094,    3096,
    3097,    3099,    3101,    3102,    3104,    3105,    3107,    3109,    3110,    3112,
    3113,    3115,    3116,    3117,    3119,    3120,    3121,    3123,    3124,    3126,
    3127,    3129,    3130,    3132,    3133,    3134,    3136,    3137,    3139,    3141,
    3142,    3144,    3146,    3148,    3149,    3151,    3152,    3155,    3156,    4358,
    4360,    4361,    4425,    4426,    4427,    4428,    4429,    4430,    4431,    4432,
    4433,    4434,    4439,    4441,    4442,    4448,    4457,    4461,    4463,    4464,
    4467,    4474,    4480,    4482,    4483,    4485,    4492,    4494,    4497,    4500,
    4502,    4504,    4506,    4507,    4510,    4514,    4515,    4520,    4521,    4522,
    4525,    4526,    4527,    4531,    4536,    4537,    4538,    4540,    4544,    4547,
    4551,    4552,    4559,    4562,    4564,    4566,    4567,    4572,    4573,    4577,
    4578,    4587,    4588,    4599,    4601,    4608,    4610,    4615,    4619,    4621,
    4623,    4625,    4629,    4630,    4635
*ELSET, ELSET=Zwischenrand_E3
    4356,    4357
*SURFACE, NAME=Zwischenrand
Zwischenrand_E1, E1
Zwischenrand_E2, E2
Zwischenrand_E3, E3
*ELSET, ELSET=Aussenrand_E1
    2994,    3001,    3004,    3011,    3016,    3017,    3018,    3023,    3028,    3034
*ELSET, ELSET=Aussenrand_E2
     229,     230,     231,     235,     239,     241,     242,     246,     247,     250,
     253,     254,     258,     259,     260,     261,     262,     263,     264,     266,
     268,     270,     272,     274,     275,     276,     277,     278,     280,     282,
     283,     285,     287,     291,     295,     297,     298,     300,     301,     303,
     304,     306,     307,     310,     311,     312,     314,     315,     317,     319,
     321,     322,     324,     326,     327,     328,     331,     332,     334,     335,
     336,     337,     340,     342,     348,     350,     352,     353,     356,     357,
     359,     362,     363,     365,     366,     367,     368,     369,     370,     371,
     373,     375,     377,     379,     381,     382,     383,     384,     385,     387,
     389,     390,     392,     394,     404,     406,     408,     410,     412,     413,
     415,     417,     419,     423,     427,     434,     436,     438,     439,     440,
     442,     445,     447,     448,     451,     452,     454,     457,     462,    2995,
    3012,    3157,    3158,    3159,    3160,    3161,    3164,    3165,    3166,    3167,
    3169,    3172,    3173,    3177,    3178,    3179,    3182,    3183,    3184,    3188,
    3190,    3192,    3195,    3196,    3198,    3200,    3202,    3205,    3207,    3208,
    3209,    3212,    3214,    3216,    3218,    3219,    3221,    3222,    3223,    3224,
    3229,    3232,    3233,    3236,    3238,    3239,    3244,    3245,    3248,    3249,
    3250,    3252,    3254,    3257,    3258,    3259,    3260,    3263,    3266,    3268,
    3270,    3272,    3273,    3274,    3276,    3278,    3280,    3281,    3282,    3283,
    3286,    3287,    3288,    3291,    3292,    3293,    3297,    3298,    3300,    3301,
** ... 4 like lines cut
*ELSET, ELSET=Aussenrand_E3
     208,     209,     210,     211,     225,     226,     227,    3025
*SURFACE, NAME=Aussenrand
Aussenrand_E1, E1
Aussenrand_E2, E2
Aussenrand_E3, E3
**
********************************** P R O P E R T I E S ************************
*SHELL SECTION, ELSET=Aussenraum, SECTION INTEGRATION=SIMPSON, MATERIAL=Default-Steel
1.000000e+00
*SHELL SECTION, ELSET=Innenleiter, SECTION INTEGRATION=SIMPSON, MATERIAL=Default-Steel
1.000000e+00
*SHELL SECTION, ELSET=Aussenleiter, SECTION INTEGRATION=SIMPSON, MATERIAL=Default-Steel
1.000000e+00
*SHELL SECTION, ELSET=Dielektrikum, SECTION INTEGRATION=SIMPSON, MATERIAL=Default-Steel
1.000000e+00
**
*END PART
**
**
**
********************************** E N D   P A R T S **********************************
**
**
********************************** A S S E M B L Y ************************************
**
*ASSEMBLY, NAME=ASSEMBLY1
**
*INSTANCE, NAME=Part-Default_1, PART=Part-Default
*END INSTANCE
**
*END ASSEMBLY
**
**
**
*MATERIAL, NAME = Default-Steel
*ELASTIC, TYPE=ISOTROPIC
2.068000e+05, 2.900000e-01
*DENSITY
7.000000e-06
*CONDUCTIVITY,TYPE=ISO
4.500000e-02
*SPECIFIC HEAT
5.000000e+02
**
**
************************************** H I S T O R Y *************************************
**
*PREPRINT
**
**************************************** S T E P 1 ***************************************
*STEP,INC=100,NAME=Default Set
**
*STATIC
1, 1, 1e-05, 1
**
**
**
**
*END STEP
