*HEADING
cubit(ichal/Projects/oFEM/unittests/mesh/meshes/simple_rect.inp): 11/25/2016: 11
version: 16.1.3
**
********************************** P A R T S **********************************
*PART, NAME=Part-Default
**
********************************** N O D E S **********************************
*NODE, NSET=ALLNODES
       1,    5.000000e+00,    5.000000e+00
       2,   -5.000000e+00,    5.000000e+00
       3,   -5.000000e+00,   -5.000000e+00
       4,    5.000000e+00,   -5.000000e+00
       5,    4.000000e+00,    5.000000e+00
       6,    3.000000e+00,    5.000000e+00
       7,    2.000000e+00,    5.000000e+00
       8,    1.000000e+00,    5.000000e+00
       9,    0.000000e+00,    5.000000e+00
      10,   -1.000000e+00,    5.000000e+00
      11,   -2.000000e+00,    5.000000e+00
      12,   -3.000000e+00,    5.000000e+00
      13,   -4.000000e+00,    5.000000e+00
      14,   -5.000000e+00,    4.000000e+00
      15,   -5.000000e+00,    3.000000e+00
      16,   -5.000000e+00,    2.000000e+00
      17,   -5.000000e+00,    1.000000e+00
      18,   -5.000000e+00,    0.000000e+00
      19,   -5.000000e+00,   -1.000000e+00
      20,   -5.000000e+00,   -2.000000e+00
** ... 118 like lines cut
**
********************************** E L E M E N T S ****************************
*ELEMENT, TYPE=STRI3, ELSET=EB1
       1,      22,       3,      23
       2,       7,      41,       6
       3,       9,      42,       8
       4,      11,      43,      10
       5,      44,      43,      11
       6,      45,      44,      12
       7,       2,      14,      13
       8,      46,       9,      10
       9,      47,       7,       8
      10,      45,      13,      14
      11,      49,       5,       6
      12,      40,       1,       5
      13,      51,      50,      16
      14,      52,      51,      17
      15,      53,      52,      18
      16,      21,      54,      20
      17,      55,      54,      21
      18,      56,      19,      20
      19,      55,      22,      23
      20,      58,      57,      24
** ... 214 like lines cut
**
********************************** S I D E S E T S **********************************
*ELSET, ELSET=boundary_E1
       1,       7,      12,      23
*ELSET, ELSET=boundary_E2
       1,       8,       9,      11,      12,      18,      24,      25,      27,      34,
      36,      37,      39,      42,      46,      51,      52,      53,      54,      56,
      58,      59,      64,      68,      69,      71,      80,      88
*ELSET, ELSET=boundary_E3
       2,       3,       4,       7,      16,      22,      23,      31
*SURFACE, NAME=boundary
boundary_E1, E1
boundary_E2, E2
boundary_E3, E3
**
********************************** P R O P E R T I E S ************************
*SHELL SECTION, ELSET=EB1, SECTION INTEGRATION=SIMPSON, MATERIAL=Default-Steel
1.000000e+00
**
*END PART
**
**
**
********************************** E N D   P A R T S **********************************
**
**
********************************** A S S E M B L Y ************************************
**
*ASSEMBLY, NAME=ASSEMBLY1
**
*INSTANCE, NAME=Part-Default_1, PART=Part-Default
*END INSTANCE
**
*END ASSEMBLY
**
**
**
*MATERIAL, NAME = Default-Steel
*ELASTIC, TYPE=ISOTROPIC
2.068000e+05, 2.900000e-01
*DENSITY
7.000000e-06
*CONDUCTIVITY,TYPE=ISO
4.500000e-02
*SPECIFIC HEAT
5.000000e+02
**
**
************************************** H I S T O R Y *************************************
**
*PREPRINT
**
**************************************** S T E P 1 ***************************************
*STEP,INC=100,NAME=Default Set
**
*STATIC
1, 1, 1e-05, 1
**
**
**
**
*END STEP
