*HEADING
cubit(ments/HSU/oFEM/examples/heatEquation/room_with_heater.inp): 10/27/2017: 08
version: 16.1.3
**
********************************** P A R T S **********************************
*PART, NAME=Part-Default
**
********************************** N O D E S **********************************
*NODE, NSET=ALLNODES
       1,   -5.000000e-01,    5.000000e-01,    5.000000e-01
       2,   -5.000000e-01,    5.000000e-01,   -5.000000e-01
       3,   -5.000000e-01,   -5.000000e-01,   -5.000000e-01
       4,   -5.000000e-01,   -5.000000e-01,    5.000000e-01
       5,   -5.000000e-01,    1.250000e-01,   -2.500000e-01
       6,   -5.000000e-01,   -1.250000e-01,   -2.500000e-01
       7,   -5.000000e-01,    1.250000e-01,    2.500000e-01
       8,   -5.000000e-01,   -1.250000e-01,    2.500000e-01
       9,    5.000000e-01,   -5.000000e-01,    5.000000e-01
      10,    5.000000e-01,    5.000000e-01,    5.000000e-01
      11,    5.000000e-01,    5.000000e-01,   -5.000000e-01
      12,    5.000000e-01,   -5.000000e-01,   -5.000000e-01
      13,    3.833333e-01,   -1.000000e-01,   -2.000000e-01
      14,    3.833333e-01,    1.000000e-01,   -2.000000e-01
      15,    2.833333e-01,   -1.000000e-01,   -2.000000e-01
      16,    2.833333e-01,    1.000000e-01,   -2.000000e-01
      17,    3.833333e-01,    1.000000e-01,   -3.000000e-01
      18,    3.833333e-01,   -1.000000e-01,   -3.000000e-01
      19,    2.833333e-01,    1.000000e-01,   -3.000000e-01
      20,    2.833333e-01,   -1.000000e-01,   -3.000000e-01
** ... 330 like lines cut
**
********************************** E L E M E N T S ****************************
*ELEMENT, TYPE=C3D4, ELSET=Space
       1,     180,     181,     182,     183
       2,     184,     185,     186,     183
       3,     187,     188,     189,     183
       4,     182,     189,     185,     183
       5,     190,     191,     192,     193
       6,     194,     195,     196,     193
       7,     197,     198,     185,     199
       8,      35,       8,      72,     200
       9,     201,     202,     198,     199
      10,     203,     204,     205,     189
      11,     206,     207,     208,     200
      12,     197,     185,     182,     199
      13,      33,     209,      81,     210
      14,     211,     197,     182,     199
      15,     212,     201,     213,     214
      16,     215,     201,     212,     214
      17,     215,     211,     201,     216
      18,     213,     201,     198,     216
      19,      21,     122,      46,     209
      20,     211,     197,     201,     216
** ... 1477 like lines cut
**
********************************** S I D E S E T S **********************************
*ELSET, ELSET=Window_S1
     459,     552,     971,    1148,    1155,    1175,    1376,    1377
*SURFACE, NAME=Window
Window_S1, S1
*ELSET, ELSET=Wall_S1
       8,      19,      25,      41,      78,     112,     115,     117,     168,     175,
     185,     193,     197,     215,     219,     220,     225,     228,     235,     237,
     240,     250,     280,     340,     352,     362,     380,     384,     392,     415,
     416,     425,     450,     452,     454,     456,     465,     497,     508,     509,
     522,     524,     528,     540,     551,     553,     557,     558,     580,     583,
     585,     588,     601,     609,     611,     624,     628,     629,     644,     648,
     649,     665,     673,     685,     690,     717,     741,     746,     753,     762,
     764,     766,     786,     792,     802,     806,     812,     839,     851,     873,
     881,     887,     889,     890,     892,     894,     907,     908,     910,     919,
     925,     927,     941,     946,     949,     953,     962,     974,     978,     979,
     981,     986,     987,     988,     998,    1000,    1002,    1009,    1024,    1025,
    1026,    1027,    1031,    1042,    1047,    1053,    1056,    1064,    1065,    1082,
    1094,    1095,    1096,    1098,    1099,    1113,    1114,    1122,    1132,    1135,
    1136,    1140,    1144,    1145,    1146,    1151,    1152,    1157,    1158,    1160,
    1161,    1162,    1163,    1167,    1168,    1170,    1172,    1176,    1178,    1181,
    1184,    1189,    1190,    1192,    1193,    1197,    1202,    1210,    1211,    1212,
    1214,    1215,    1218,    1226,    1227,    1228,    1230,    1232,    1233,    1235,
    1237,    1238,    1240,    1241,    1243,    1244,    1248,    1249,    1250,    1251,
    1252,    1253,    1258,    1260,    1263,    1265,    1273,    1274,    1275,    1276,
    1277,    1278,    1279,    1280,    1281,    1283,    1285,    1286,    1290,    1292,
** ... 9 like lines cut
*ELSET, ELSET=Wall_S2
     225,     262,     340,     380,     585,     786,    1136,    1240,    1253,    1278,
    1279,    1283,    1332,    1343,    1350,    1363,    1383
*ELSET, ELSET=Wall_S4
      41,     228,     454,     553,    1162,    1190,    1211,    1215,    1218,    1250,
    1285,    1308,    1310,    1341,    1363,    1364,    1383,    1440,    1463,    1491
*SURFACE, NAME=Wall
Wall_S1, S1
Wall_S2, S2
Wall_S4, S4
*ELSET, ELSET=Heater_S1
     308,     670,     693,     817,     899,    1073,    1097,    1100,    1256,    1271,
    1425,    1438,    1454,    1465,    1469,    1480
*ELSET, ELSET=Heater_S3
     161,    1185,    1239,    1474
*SURFACE, NAME=Heater
Heater_S1, S1
Heater_S3, S3
**
********************************** P R O P E R T I E S ************************
*SOLID SECTION, ELSET=Space, MATERIAL=Default-Steel
**
*END PART
**
**
**
********************************** E N D   P A R T S **********************************
**
**
********************************** A S S E M B L Y ************************************
**
*ASSEMBLY, NAME=ASSEMBLY1
**
*INSTANCE, NAME=Part-Default_1, PART=Part-Default
*END INSTANCE
**
*END ASSEMBLY
**
**
**
*MATERIAL, NAME = Default-Steel
*ELASTIC, TYPE=ISOTROPIC
2.068000e+05, 2.900000e-01
*DENSITY
7.000000e-06
*CONDUCTIVITY,TYPE=ISO
4.500000e-02
*SPECIFIC HEAT
5.000000e+02
**
**
************************************** H I S T O R Y *************************************
**
*PREPRINT
**
**************************************** S T E P 1 ***************************************
*STEP,INC=100,NAME=Default Set
**
*STATIC
1, 1, 1e-05, 1
**
**
**
**
*END STEP
