*HEADING
cubit(FEM/oFEM/examples/eddyCurrent/asynchronousMotor/motor.inp): 04/13/2018: 13
version: 16.3.4
**
********************************** P A R T S **********************************
*PART, NAME=Part-Default
**
********************************** N O D E S **********************************
*NODE, NSET=ALLNODES
       1,    7.396115e+00,    5.128107e+00
       2,    8.054036e+00,    4.650000e+00
       3,    8.139128e+00,    3.841171e+00
       4,    7.528643e+00,    3.209803e+00
       5,    6.642314e+00,    3.312017e+00
       6,    6.190374e+00,    4.081288e+00
       7,    6.532580e+00,    4.905255e+00
       8,    7.218838e+00,    4.175586e+00
       9,   -7.430129e-01,    8.969277e+00
      10,    5.694608e-16,    9.300000e+00
      11,    7.430129e-01,    8.969277e+00
      12,    9.845502e-01,    8.124897e+00
      13,    4.528657e-01,    7.408421e+00
      14,   -4.393118e-01,    7.401665e+00
      15,   -9.817856e-01,    8.110008e+00
      16,   -6.744265e-03,    8.339490e+00
      17,   -8.139128e+00,    3.841171e+00
      18,   -8.054036e+00,    4.650000e+00
      19,   -7.396115e+00,    5.128107e+00
      20,   -6.544092e+00,    4.915094e+00
** ... 3849 like lines cut
**
********************************** E L E M E N T S ****************************
*ELEMENT, TYPE=STRI3, ELSET=inner_coil1
       1,    1049,       4,    1024
       2,    1024,     278,    1050
       3,    1050,     285,    1049
       4,    1049,    1024,    1050
       5,    1029,       8,    1034
       6,    1034,     281,    1051
       7,    1051,     278,    1029
       8,    1053,    1055,    1056
       9,    1056,     275,    1053
      10,    1055,     284,    1056
      11,    1053,     286,    1055
      12,    1042,    1014,    1056
      13,    1056,     284,    1042
      14,    1014,     275,    1056
      15,    1042,       8,    1014
      16,    1054,    1044,    1055
      17,    1055,     286,    1054
      18,    1044,     284,    1055
      19,    1054,       7,    1044
      20,    1012,    1052,    1053
** ... 92 like lines cut
*ELEMENT, TYPE=STRI3, ELSET=inner_coil2
     113,    1098,      12,    1073
     114,    1073,     292,    1099
     115,    1099,     299,    1098
     116,    1098,    1073,    1099
     117,    1078,      16,    1083
     118,    1083,     295,    1100
     119,    1100,     292,    1078
     120,    1102,    1104,    1105
     121,    1105,     289,    1102
     122,    1104,     298,    1105
     123,    1102,     300,    1104
     124,    1091,    1063,    1105
     125,    1105,     298,    1091
     126,    1063,     289,    1105
     127,    1091,      16,    1063
     128,    1103,    1093,    1104
     129,    1104,     300,    1103
     130,    1093,     298,    1104
     131,    1103,      15,    1093
     132,    1061,    1101,    1102
** ... 92 like lines cut
*ELEMENT, TYPE=STRI3, ELSET=inner_coil3
     225,    1147,      20,    1122
     226,    1122,     306,    1148
     227,    1148,     313,    1147
     228,    1147,    1122,    1148
     229,    1127,      24,    1132
     230,    1132,     309,    1149
     231,    1149,     306,    1127
     232,    1151,    1153,    1154
     233,    1154,     303,    1151
     234,    1153,     312,    1154
     235,    1151,     314,    1153
     236,    1140,    1112,    1154
     237,    1154,     312,    1140
     238,    1112,     303,    1154
     239,    1140,      24,    1112
     240,    1152,    1142,    1153
     241,    1153,     314,    1152
     242,    1142,     312,    1153
     243,    1152,      23,    1142
     244,    1110,    1150,    1151
** ... 92 like lines cut
*ELEMENT, TYPE=STRI3, ELSET=inner_coil4
     337,    1196,      28,    1171
     338,    1171,     320,    1197
     339,    1197,     327,    1196
     340,    1196,    1171,    1197
     341,    1176,      32,    1181
     342,    1181,     323,    1198
     343,    1198,     320,    1176
     344,    1200,    1202,    1203
     345,    1203,     317,    1200
     346,    1202,     326,    1203
     347,    1200,     328,    1202
     348,    1189,    1161,    1203
     349,    1203,     326,    1189
     350,    1161,     317,    1203
     351,    1189,      32,    1161
     352,    1201,    1191,    1202
     353,    1202,     328,    1201
     354,    1191,     326,    1202
     355,    1201,      31,    1191
     356,    1159,    1199,    1200
** ... 92 like lines cut
*ELEMENT, TYPE=STRI3, ELSET=inner_coil5
     449,    1245,      36,    1220
     450,    1220,     334,    1246
     451,    1246,     341,    1245
     452,    1245,    1220,    1246
     453,    1225,      40,    1230
     454,    1230,     337,    1247
     455,    1247,     334,    1225
     456,    1249,    1251,    1252
     457,    1252,     331,    1249
     458,    1251,     340,    1252
     459,    1249,     342,    1251
     460,    1238,    1210,    1252
     461,    1252,     340,    1238
     462,    1210,     331,    1252
     463,    1238,      40,    1210
     464,    1250,    1240,    1251
     465,    1251,     342,    1250
     466,    1240,     340,    1251
     467,    1250,      39,    1240
     468,    1208,    1248,    1249
** ... 92 like lines cut
*ELEMENT, TYPE=STRI3, ELSET=inner_coil6
     561,    1294,      44,    1269
     562,    1269,     348,    1295
     563,    1295,     355,    1294
     564,    1294,    1269,    1295
     565,    1274,      48,    1279
     566,    1279,     351,    1296
     567,    1296,     348,    1274
     568,    1298,    1300,    1301
     569,    1301,     345,    1298
     570,    1300,     354,    1301
     571,    1298,     356,    1300
     572,    1287,    1259,    1301
     573,    1301,     354,    1287
     574,    1259,     345,    1301
     575,    1287,      48,    1259
     576,    1299,    1289,    1300
     577,    1300,     356,    1299
     578,    1289,     354,    1300
     579,    1299,      47,    1289
     580,    1257,    1297,    1298
** ... 92 like lines cut
*ELEMENT, TYPE=STRI3, ELSET=outer_coil1
     673,    1329,      51,    1348
     674,    1348,     371,    1349
     675,    1349,     366,    1329
     676,    1329,    1348,    1349
     677,    1350,      54,    1337
     678,    1337,     368,    1351
     679,    1351,     371,    1350
     680,    1350,    1337,    1351
     681,    1354,    1356,    1357
     682,    1357,     367,    1354
     683,    1356,     357,    1357
     684,    1354,     372,    1356
     685,    1309,    1334,    1357
     686,    1357,     357,    1309
     687,    1334,     367,    1357
     688,    1309,      57,    1334
     689,    1355,    1302,    1356
     690,    1356,     372,    1355
     691,    1302,     357,    1356
     692,    1355,      49,    1302
** ... 108 like lines cut
*ELEMENT, TYPE=STRI3, ELSET=outer_coil2
     801,    1385,      60,    1404
     802,    1404,     387,    1405
     803,    1405,     382,    1385
     804,    1385,    1404,    1405
     805,    1406,      63,    1393
     806,    1393,     384,    1407
     807,    1407,     387,    1406
     808,    1406,    1393,    1407
     809,    1410,    1412,    1413
     810,    1413,     383,    1410
     811,    1412,     373,    1413
     812,    1410,     388,    1412
     813,    1365,    1390,    1413
     814,    1413,     373,    1365
     815,    1390,     383,    1413
     816,    1365,      66,    1390
     817,    1411,    1358,    1412
     818,    1412,     388,    1411
     819,    1358,     373,    1412
     820,    1411,      58,    1358
** ... 108 like lines cut
*ELEMENT, TYPE=STRI3, ELSET=outer_coil3
     929,    1441,      69,    1460
     930,    1460,     403,    1461
     931,    1461,     398,    1441
     932,    1441,    1460,    1461
     933,    1462,      72,    1449
     934,    1449,     400,    1463
     935,    1463,     403,    1462
     936,    1462,    1449,    1463
     937,    1466,    1468,    1469
     938,    1469,     399,    1466
     939,    1468,     389,    1469
     940,    1466,     404,    1468
     941,    1421,    1446,    1469
     942,    1469,     389,    1421
     943,    1446,     399,    1469
     944,    1421,      75,    1446
     945,    1467,    1414,    1468
     946,    1468,     404,    1467
     947,    1414,     389,    1468
     948,    1467,      67,    1414
** ... 108 like lines cut
*ELEMENT, TYPE=STRI3, ELSET=outer_coil4
    1057,    1497,      78,    1516
    1058,    1516,     419,    1517
    1059,    1517,     414,    1497
    1060,    1497,    1516,    1517
    1061,    1518,      81,    1505
    1062,    1505,     416,    1519
    1063,    1519,     419,    1518
    1064,    1518,    1505,    1519
    1065,    1522,    1524,    1525
    1066,    1525,     415,    1522
    1067,    1524,     405,    1525
    1068,    1522,     420,    1524
    1069,    1477,    1502,    1525
    1070,    1525,     405,    1477
    1071,    1502,     415,    1525
    1072,    1477,      84,    1502
    1073,    1523,    1470,    1524
    1074,    1524,     420,    1523
    1075,    1470,     405,    1524
    1076,    1523,      76,    1470
** ... 108 like lines cut
*ELEMENT, TYPE=STRI3, ELSET=outer_coil5
    1185,    1553,      87,    1572
    1186,    1572,     435,    1573
    1187,    1573,     430,    1553
    1188,    1553,    1572,    1573
    1189,    1574,      90,    1561
    1190,    1561,     432,    1575
    1191,    1575,     435,    1574
    1192,    1574,    1561,    1575
    1193,    1578,    1580,    1581
    1194,    1581,     431,    1578
    1195,    1580,     421,    1581
    1196,    1578,     436,    1580
    1197,    1533,    1558,    1581
    1198,    1581,     421,    1533
    1199,    1558,     431,    1581
    1200,    1533,      93,    1558
    1201,    1579,    1526,    1580
    1202,    1580,     436,    1579
    1203,    1526,     421,    1580
    1204,    1579,      85,    1526
** ... 108 like lines cut
*ELEMENT, TYPE=STRI3, ELSET=outer_coil6
    1313,    1609,      96,    1628
    1314,    1628,     451,    1629
    1315,    1629,     446,    1609
    1316,    1609,    1628,    1629
    1317,    1630,      99,    1617
    1318,    1617,     448,    1631
    1319,    1631,     451,    1630
    1320,    1630,    1617,    1631
    1321,    1634,    1636,    1637
    1322,    1637,     447,    1634
    1323,    1636,     437,    1637
    1324,    1634,     452,    1636
    1325,    1589,    1614,    1637
    1326,    1637,     437,    1589
    1327,    1614,     447,    1637
    1328,    1589,     102,    1614
    1329,    1635,    1582,    1636
    1330,    1636,     452,    1635
    1331,    1582,     437,    1636
    1332,    1635,      94,    1582
** ... 108 like lines cut
*ELEMENT, TYPE=STRI3, ELSET=ring
    1441,    2195,     116,    2196
    1442,    2196,     611,    2197
    1443,    2197,     610,    2195
    1444,    2195,    2196,    2197
    1445,    2198,     117,    2199
    1446,    2199,     612,    2200
    1447,    2200,     611,    2198
    1448,    2198,    2199,    2200
    1449,    2201,      11,    2202
    1450,    2202,     610,    2203
    1451,    2203,     612,    2201
    1452,    2201,    2202,    2203
    1453,    2197,     611,    2200
    1454,    2200,     612,    2203
    1455,    2203,     610,    2197
    1456,    2197,    2200,    2203
    1457,    1779,      69,    2190
    1458,    2190,     609,    2204
    1459,    2204,     496,    1779
    1460,    1779,    2190,    2204
** ... 1708 like lines cut
*ELEMENT, TYPE=STRI3, ELSET=inner
    3169,    3514,     240,    3406
    3170,    3406,     902,    3515
    3171,    3515,     929,    3514
    3172,    3514,    3406,    3515
    3173,    3511,     893,    3513
    3174,    3513,     929,    3515
    3175,    3515,     902,    3511
    3176,    3511,    3513,    3515
    3177,    2818,     212,    3142
    3178,    3142,     844,    3516
    3179,    3516,     769,    2818
    3180,    2818,    3142,    3516
    3181,    3140,     192,    2723
    3182,    2723,     746,    3517
    3183,    3517,     844,    3140
    3184,    3140,    2723,    3517
    3185,    2721,     241,    2820
    3186,    2820,     769,    3518
    3187,    3518,     746,    2721
    3188,    2721,    2820,    3518
** ... 4236 like lines cut
**
********************************** S I D E S E T S **********************************
*ELSET, ELSET=coil_E1
     674,     677,     692,     695,     706,     709,     722,     725,     738,     741,
     774,     777,     802,     805,     820,     823,     834,     837,     850,     853,
     866,     869,     902,     905,     930,     933,     948,     951,     962,     965,
     978,     981,     994,     997,    1030,    1033,    1058,    1061,    1076,    1079,
    1090,    1093,    1106,    1109,    1122,    1125,    1158,    1161,    1186,    1189,
    1204,    1207,    1218,    1221,    1234,    1237,    1250,    1253,    1286,    1289,
    1314,    1317,    1332,    1335,    1346,    1349,    1362,    1365,    1378,    1381,
    1414,    1417
*ELSET, ELSET=coil_E2
     673,     679,     690,     696,     705,     711,     721,     727,     737,     743,
     773,     779,     801,     807,     818,     824,     833,     839,     849,     855,
     865,     871,     901,     907,     929,     935,     946,     952,     961,     967,
     977,     983,     993,     999,    1029,    1035,    1057,    1063,    1074,    1080,
    1089,    1095,    1105,    1111,    1121,    1127,    1157,    1163,    1185,    1191,
    1202,    1208,    1217,    1223,    1233,    1239,    1249,    1255,    1285,    1291,
    1313,    1319,    1330,    1336,    1345,    1351,    1361,    1367,    1377,    1383,
    1413,    1419
*SURFACE, NAME=coil
coil_E1, E1
coil_E2, E2
*ELSET, ELSET=ring_E1
    1442,    1445,    1490,    1493,    1592,    1595,    1640,    1643,    1720,    1723,
    1768,    1771,    1832,    1835,    1848,    1851,    1910,    1913,    1926,    1929,
    1958,    1961,    1970,    1973,    2038,    2041,    2054,    2057,    2066,    2069,
    2118,    2121,    2134,    2137,    2146,    2149,    2198,    2201,    2214,    2217,
    2226,    2229,    2278,    2281,    2294,    2297,    2306,    2309,    2358,    2361,
    2374,    2377,    2402,    2405,    2466,    2469,    2482,    2485,    2530,    2533,
    2546,    2549,    2594,    2597,    2674,    2677,    2690,    2693,    2754,    2757,
    2802,    2805,    2882,    2885,    2898,    2901,    2962,    2965,    3010,    3013,
    3090,    3093,    3106,    3109
*ELSET, ELSET=ring_E2
    1441,    1447,    1489,    1495,    1590,    1596,    1638,    1644,    1718,    1724,
    1766,    1772,    1830,    1836,    1846,    1852,    1909,    1915,    1925,    1931,
    1957,    1963,    1969,    1975,    2037,    2043,    2053,    2059,    2065,    2071,
    2117,    2123,    2133,    2139,    2145,    2151,    2197,    2203,    2213,    2219,
    2225,    2231,    2277,    2283,    2293,    2299,    2305,    2311,    2357,    2363,
    2373,    2379,    2401,    2407,    2465,    2471,    2481,    2487,    2529,    2535,
    2545,    2551,    2593,    2599,    2673,    2679,    2689,    2695,    2753,    2759,
    2801,    2807,    2881,    2887,    2897,    2903,    2961,    2967,    3009,    3015,
    3089,    3095,    3105,    3111
*SURFACE, NAME=ring
ring_E1, E1
ring_E2, E2
**
********************************** P R O P E R T I E S ************************
*SHELL SECTION, ELSET=inner_coil1, SECTION INTEGRATION=SIMPSON, MATERIAL=Default-Steel
1.000000e+00
*SHELL SECTION, ELSET=inner_coil2, SECTION INTEGRATION=SIMPSON, MATERIAL=Default-Steel
1.000000e+00
*SHELL SECTION, ELSET=inner_coil3, SECTION INTEGRATION=SIMPSON, MATERIAL=Default-Steel
1.000000e+00
*SHELL SECTION, ELSET=inner_coil4, SECTION INTEGRATION=SIMPSON, MATERIAL=Default-Steel
1.000000e+00
*SHELL SECTION, ELSET=inner_coil5, SECTION INTEGRATION=SIMPSON, MATERIAL=Default-Steel
1.000000e+00
*SHELL SECTION, ELSET=inner_coil6, SECTION INTEGRATION=SIMPSON, MATERIAL=Default-Steel
1.000000e+00
*SHELL SECTION, ELSET=outer_coil1, SECTION INTEGRATION=SIMPSON, MATERIAL=Default-Steel
1.000000e+00
*SHELL SECTION, ELSET=outer_coil2, SECTION INTEGRATION=SIMPSON, MATERIAL=Default-Steel
1.000000e+00
*SHELL SECTION, ELSET=outer_coil3, SECTION INTEGRATION=SIMPSON, MATERIAL=Default-Steel
1.000000e+00
*SHELL SECTION, ELSET=outer_coil4, SECTION INTEGRATION=SIMPSON, MATERIAL=Default-Steel
1.000000e+00
*SHELL SECTION, ELSET=outer_coil5, SECTION INTEGRATION=SIMPSON, MATERIAL=Default-Steel
1.000000e+00
*SHELL SECTION, ELSET=outer_coil6, SECTION INTEGRATION=SIMPSON, MATERIAL=Default-Steel
1.000000e+00
*SHELL SECTION, ELSET=ring, SECTION INTEGRATION=SIMPSON, MATERIAL=Default-Steel
1.000000e+00
*SHELL SECTION, ELSET=inner, SECTION INTEGRATION=SIMPSON, MATERIAL=Default-Steel
1.000000e+00
**
*END PART
**
**
**
********************************** E N D   P A R T S **********************************
**
**
********************************** A S S E M B L Y ************************************
**
*ASSEMBLY, NAME=ASSEMBLY1
**
*INSTANCE, NAME=Part-Default_1, PART=Part-Default
*END INSTANCE
**
*END ASSEMBLY
**
**
**
*MATERIAL, NAME = Default-Steel
*ELASTIC, TYPE=ISOTROPIC
2.068000e+05, 2.900000e-01
*DENSITY
7.000000e-06
*CONDUCTIVITY,TYPE=ISO
4.500000e-02
*SPECIFIC HEAT
5.000000e+02
**
**
************************************** H I S T O R Y *************************************
**
*PREPRINT
**
**************************************** S T E P 1 ***************************************
*STEP,INC=100,NAME=Default Set
**
*STATIC
1, 1, 1e-05, 1
**
**
**
**
*END STEP
