*HEADING
cubit(ents/github/ofem/examples/nedelec/resonator/resonator.inp): 01/25/2018: 11
version: 16.3.4
**
********************************** P A R T S **********************************
*PART, NAME=Part-Default
**
********************************** N O D E S **********************************
*NODE, NSET=ALLNODES
       1,    5.000000e-01,   -5.000000e-01,    1.000000e+00
       2,    5.000000e-01,    5.000000e-01,    1.000000e+00
       3,   -5.000000e-01,    5.000000e-01,    1.000000e+00
       4,   -5.000000e-01,   -5.000000e-01,    1.000000e+00
       5,    5.000000e-01,    5.000000e-01,   -1.000000e+00
       6,    5.000000e-01,   -5.000000e-01,   -1.000000e+00
       7,   -5.000000e-01,   -5.000000e-01,   -1.000000e+00
       8,   -5.000000e-01,    5.000000e-01,   -1.000000e+00
       9,    5.000000e-01,   -4.000000e-01,    1.000000e+00
      10,    5.000000e-01,   -3.000000e-01,    1.000000e+00
      11,    5.000000e-01,   -2.000000e-01,    1.000000e+00
      12,    5.000000e-01,   -1.000000e-01,    1.000000e+00
      13,    5.000000e-01,   -1.110223e-16,    1.000000e+00
      14,    5.000000e-01,    1.000000e-01,    1.000000e+00
      15,    5.000000e-01,    2.000000e-01,    1.000000e+00
      16,    5.000000e-01,    3.000000e-01,    1.000000e+00
      17,    5.000000e-01,    4.000000e-01,    1.000000e+00
      18,    4.000000e-01,    5.000000e-01,    1.000000e+00
      19,    3.000000e-01,    5.000000e-01,    1.000000e+00
      20,    2.000000e-01,    5.000000e-01,    1.000000e+00
** ... 4183 like lines cut
**
********************************** E L E M E N T S ****************************
*ELEMENT, TYPE=C3D4, ELSET=dielectric
       1,    1131,    1132,    1133,    1134
       2,    1135,    1136,    1137,    1134
       3,    1138,    1139,    1140,    1134
       4,    1141,    1142,    1140,    1134
       5,    1143,    1141,    1133,    1134
       6,    1141,    1140,    1139,    1134
       7,    1144,    1145,    1146,    1147
       8,    1148,    1149,    1144,    1147
       9,    1150,    1151,    1146,    1147
      10,    1152,    1145,    1153,    1147
      11,    1154,    1152,    1153,    1147
      12,    1155,    1156,    1157,    1158
      13,    1159,    1156,    1155,    1158
      14,    1160,    1161,    1162,    1158
      15,    1159,    1163,    1156,    1158
      16,    1164,    1165,    1166,    1167
      17,    1168,    1160,    1163,    1169
      18,    1170,    1171,    1160,    1169
      19,    1171,    1160,    1169,    1158
      20,    1172,    1173,    1174,    1175
** ... 21682 like lines cut
**
********************************** S I D E S E T S **********************************
*ELSET, ELSET=PEC_S1
      46,      68,      70,      95,     101,     113,     114,     115,     118,     121,
     178,     217,     229,     288,     326,     352,     356,     392,     423,     491,
     673,     675,     826,     857,     894,     971,    1095,    1125,    1387,    1388,
    1500,    1533,    1534,    1552,    1567,    1584,    1613,    1634,    1645,    1648,
    1651,    1652,    1654,    1661,    1663,    1667,    1672,    1679,    1684,    1689,
    1693,    1697,    1698,    1708,    1712,    1714,    1731,    1732,    1734,    1737,
    1742,    1748,    1751,    1756,    1757,    1761,    1769,    1770,    1771,    1775,
    1779,    1780,    1782,    1788,    1795,    1797,    1801,    1802,    1816,    1820,
    1821,    1822,    1829,    1832,    1835,    1836,    1839,    1841,    1845,    1847,
    1849,    1850,    1853,    1857,    1858,    1860,    1861,    1869,    1872,    1873,
    1874,    1885,    1894,    1895,    1896,    1899,    1901,    1904,    1912,    1913,
    1926,    1928,    1929,    1940,    1944,    1946,    1951,    1960,    1961,    1967,
    1968,    1971,    1975,    1976,    1978,    1988,    1989,    1995,    2005,    2006,
    2007,    2022,    2023,    2028,    2031,    2033,    2034,    2035,    2037,    2038,
    2040,    2045,    2050,    2057,    2059,    2061,    2062,    2071,    2074,    2075,
    2076,    2079,    2085,    2098,    2100,    2101,    2107,    2115,    2123,    2125,
    2130,    2131,    2132,    2137,    2142,    2148,    2150,    2155,    2158,    2161,
    2165,    2168,    2169,    2170,    2179,    2195,    2204,    2205,    2220,    2222,
    2224,    2225,    2227,    2228,    2232,    2235,    2250,    2253,    2256,    2261,
    2275,    2276,    2278,    2290,    2298,    2303,    2307,    2309,    2310,    2311,
** ... 192 like lines cut
*ELSET, ELSET=PEC_S2
    1387,    1841,    1926,    2050,    2220,    2261,    2396,    2823,    2867,    2868,
    2989,    3071,    3217,    3263,    3335,    3554,    3763,    3812,    3824,    3825,
    3890,    3969,    4186,    4196,    4208,    4249,    4267,    4408,    4412,    4437,
    4497,    4814,    4865,    4876,    5103,    5108,    5280,    5411,    5553,    5619,
    5697,    5990,    6002,    6265,    6352,    6496,    6559,    6991,    7146,    7325,
    7342,    7452,    7454,    7499,    7625,    7687,    7745,    7772,    7798,    7832,
   12675
*ELSET, ELSET=PEC_S3
    1795,    1904,    2050,    2879,    3763,    3820,    3823,    3841,    3933,    4150,
    4397,    4521,    4997,    5206,    5502,    5562,    5914,    6157,    6457,    7074,
    7935
*ELSET, ELSET=PEC_S4
     673,     971,    1533,    1780,    1913,    2204,    2235,    2256,    2377,    2676,
    2832,    2887,    2941,    2957,    3004,    3073,    3208,    3373,    3395,    3805,
    3854,    3877,    4231,    4244,    4460,    4471,    4576,    4704,    4794,    4860,
    4870,    5011,    5065,    5278,    5438,    5623,    5643,    5705,    5847,    5879,
    5940,    6167,    6419,    6427,    6480,    6500,    6653,    6695,    7082,    7088,
    7126,    7142,    7199,    7336,    7600,    7618,    7689,    7721,    7791,   12675
*SURFACE, NAME=PEC
PEC_S1, S1
PEC_S2, S2
PEC_S3, S3
PEC_S4, S4
**
********************************** P R O P E R T I E S ************************
*SOLID SECTION, ELSET=dielectric, MATERIAL=Default-Steel
**
*END PART
**
**
**
********************************** E N D   P A R T S **********************************
**
**
********************************** A S S E M B L Y ************************************
**
*ASSEMBLY, NAME=ASSEMBLY1
**
*INSTANCE, NAME=Part-Default_1, PART=Part-Default
*END INSTANCE
**
*END ASSEMBLY
**
**
**
*MATERIAL, NAME = Default-Steel
*ELASTIC, TYPE=ISOTROPIC
2.068000e+05, 2.900000e-01
*DENSITY
7.000000e-06
*CONDUCTIVITY,TYPE=ISO
4.500000e-02
*SPECIFIC HEAT
5.000000e+02
**
**
************************************** H I S T O R Y *************************************
**
*PREPRINT
**
**************************************** S T E P 1 ***************************************
*STEP,INC=100,NAME=Default Set
**
*STATIC
1, 1, 1e-05, 1
**
**
**
**
*END STEP
