*HEADING
cubit(ents/github/ofem/examples/nedelec/resonator/resonator.inp): 01/26/2018: 09
version: 16.3.4
**
********************************** P A R T S **********************************
*PART, NAME=Part-Default
**
********************************** N O D E S **********************************
*NODE, NSET=ALLNODES
       1,    2.500000e-01,   -2.500000e-01,    5.000000e-01
       2,    2.500000e-01,    2.500000e-01,    5.000000e-01
       3,   -2.500000e-01,    2.500000e-01,    5.000000e-01
       4,   -2.500000e-01,   -2.500000e-01,    5.000000e-01
       5,    2.500000e-01,    2.500000e-01,   -5.000000e-01
       6,    2.500000e-01,   -2.500000e-01,   -5.000000e-01
       7,   -2.500000e-01,   -2.500000e-01,   -5.000000e-01
       8,   -2.500000e-01,    2.500000e-01,   -5.000000e-01
       9,    2.500000e-01,   -1.500000e-01,    5.000000e-01
      10,    2.500000e-01,   -5.000000e-02,    5.000000e-01
      11,    2.500000e-01,    5.000000e-02,    5.000000e-01
      12,    2.500000e-01,    1.500000e-01,    5.000000e-01
      13,    1.500000e-01,    2.500000e-01,    5.000000e-01
      14,    5.000000e-02,    2.500000e-01,    5.000000e-01
      15,   -5.000000e-02,    2.500000e-01,    5.000000e-01
      16,   -1.500000e-01,    2.500000e-01,    5.000000e-01
      17,   -2.500000e-01,    1.500000e-01,    5.000000e-01
      18,   -2.500000e-01,    5.000000e-02,    5.000000e-01
      19,   -2.500000e-01,   -5.000000e-02,    5.000000e-01
      20,   -2.500000e-01,   -1.500000e-01,    5.000000e-01
** ... 549 like lines cut
**
********************************** E L E M E N T S ****************************
*ELEMENT, TYPE=C3D4, ELSET=dielectric
       1,     279,     280,     281,     282
       2,     283,     284,     285,     282
       3,     286,     281,     287,     282
       4,     285,     286,     287,     282
       5,     288,     289,     280,     290
       6,     291,     292,     288,     290
       7,     291,     293,     294,     290
       8,     295,     296,     297,     290
       9,     294,     293,     296,     290
      10,     292,     298,     299,     290
      11,     300,     301,     298,     297
      12,     300,     302,     303,     297
      13,     304,     305,     302,     297
      14,     306,     303,     307,     297
      15,     305,     308,     307,     297
      16,     309,     310,     311,     312
      17,     313,     314,     311,     312
      18,     313,     311,     315,     312
      19,     316,     317,     318,     312
      20,     316,     319,     310,     312
** ... 2463 like lines cut
**
********************************** S I D E S E T S **********************************
*ELSET, ELSET=PEC_S1
      42,      52,      77,      88,     121,     226,     238,     269,     315,     320,
     321,     345,     384,     397,     433,     463,     484,     491,     520,     523,
     524,     538,     558,     603,     637,     649,     663,     688,     693,     701,
     706,     716,     717,     729,     732,     751,     767,     779,     780,     783,
     798,     812,     817,     819,     885,     886,     924,     938,     942,     955,
     957,     999,    1012,    1030,    1034,    1046,    1083,    1084,    1095,    1110,
    1116,    1141,    1160,    1169,    1178,    1181,    1187,    1196,    1220,    1232,
    1242,    1243,    1271,    1284,    1339,    1341,    1357,    1359,    1370,    1372,
    1382,    1389,    1420,    1429,    1463,    1468,    1473,    1474,    1479,    1482,
    1508,    1517,    1552,    1561,    1564,    1568,    1569,    1571,    1581,    1582,
    1586,    1595,    1600,    1606,    1613,    1618,    1621,    1625,    1627,    1629,
    1636,    1650,    1652,    1653,    1658,    1663,    1669,    1679,    1680,    1693,
    1694,    1695,    1697,    1704,    1708,    1714,    1717,    1721,    1754,    1759,
    1764,    1766,    1768,    1770,    1773,    1782,    1788,    1789,    1791,    1794,
    1797,    1806,    1816,    1817,    1824,    1828,    1829,    1834,    1835,    1836,
    1837,    1838,    1839,    1842,    1848,    1849,    1851,    1853,    1854,    1855,
    1859,    1869,    1870,    1872,    1884,    1890,    1892,    1893,    1898,    1908,
    1923,    1924,    1927,    1928,    1932,    1936,    1942,    1943,    1944,    1945,
    1946,    1950,    1951,    1957,    1971,    1974,    1977,    1979,    1983,    1986,
    1999,    2006,    2007,    2008,    2010,    2014,    2015,    2017,    2022,    2023,
** ... 20 like lines cut
*ELSET, ELSET=PEC_S2
     427,     688,     701,     999,    1389,    1552,    1642,    1835,    1842,    1928,
    1983,    2010,    2017,    2175,    2186,    2213,    2267,    2364,    2396,    2414
*ELSET, ELSET=PEC_S3
    1581,    1582,    1842,    2025,    2290,    2298,    2372
*ELSET, ELSET=PEC_S4
     226,     706,    1359,    1708,    1766,    1788,    1870,    1872,    2059,    2173,
    2225,    2277,    2473
*SURFACE, NAME=PEC
PEC_S1, S1
PEC_S2, S2
PEC_S3, S3
PEC_S4, S4
*ELSET, ELSET=Excitation_S1
     181,     243,     259,     347,     395,     559,    1061,    1064,    1104,    1201,
    1280,    1291,    1310,    1435,    1465,    1498,    1513,    1529,    1545,    1563,
    1591,    1623,    1631,    1632,    1710,    1724,    1775,    1778,    1796,    1826,
    1833,    1840,    1841,    1858,    1860,    1891,    1894,    1895,    1905,    1906,
    1912,    1913,    1914,    1984,    1987,    2062,    2064,    2091,    2093,    2102,
    2104,    2121,    2124,    2130,    2133,    2134,    2149,    2151,    2158,    2159,
    2160,    2176,    2185,    2209,    2226,    2233,    2263,    2292,    2307,    2310,
    2315,    2317,    2319,    2323,    2328,    2339,    2352,    2354,    2368,    2380,
    2419,    2420,    2423,    2424,    2426,    2428,    2431,    2433,    2439,    2464
*ELSET, ELSET=Excitation_S2
     269,    1420,    1650,    1890,    1927,    1951,    2098,    2105,    2111,    2116,
    2279,    2355,    2427
*ELSET, ELSET=Excitation_S3
    1586,    2053,    2063
*ELSET, ELSET=Excitation_S4
     433,    2365,    2411,    2417,    2453,    2461
*SURFACE, NAME=Excitation
Excitation_S1, S1
Excitation_S2, S2
Excitation_S3, S3
Excitation_S4, S4
**
********************************** P R O P E R T I E S ************************
*SOLID SECTION, ELSET=dielectric, MATERIAL=Default-Steel
**
*END PART
**
**
**
********************************** E N D   P A R T S **********************************
**
**
********************************** A S S E M B L Y ************************************
**
*ASSEMBLY, NAME=ASSEMBLY1
**
*INSTANCE, NAME=Part-Default_1, PART=Part-Default
*END INSTANCE
**
*END ASSEMBLY
**
**
**
*MATERIAL, NAME = Default-Steel
*ELASTIC, TYPE=ISOTROPIC
2.068000e+05, 2.900000e-01
*DENSITY
7.000000e-06
*CONDUCTIVITY,TYPE=ISO
4.500000e-02
*SPECIFIC HEAT
5.000000e+02
**
**
************************************** H I S T O R Y *************************************
**
*PREPRINT
**
**************************************** S T E P 1 ***************************************
*STEP,INC=100,NAME=Default Set
**
*STATIC
1, 1, 1e-05, 1
**
**
**
**
*END STEP
