*HEADING
cubit(M/projects/exercises/planarCapacitor/planar_capacitor.inp): 10/21/2016: 10
version: 16.0.3
**
********************************** P A R T S **********************************
*PART, NAME=Part-Default
**
********************************** N O D E S **********************************
*NODE, NSET=ALLNODES
       1,   -3.734412e-02,   -3.516254e-02
       2,   -4.981774e-02,   -2.813536e-02
       3,   -4.985400e-02,   -4.251392e-02
       4,   -4.989294e-02,   -5.726853e-02
       5,   -3.738803e-02,   -4.913535e-02
       6,   -2.490468e-02,   -4.089314e-02
       7,   -3.741824e-02,   -6.421662e-02
       8,   -2.494591e-02,   -6.928651e-02
       9,   -2.491783e-02,   -5.487163e-02
      10,   -6.245173e-02,   -8.088952e-02
      11,   -5.000000e-02,   -1.000000e-01
      12,   -4.993221e-02,   -7.357319e-02
      13,   -6.241204e-02,   -6.421038e-02
      14,   -7.493817e-02,   -6.930655e-02
      15,   -6.235019e-02,   -3.484496e-02
      16,   -7.487771e-02,   -4.085903e-02
      17,   -6.237520e-02,   -4.924685e-02
      18,   -3.762910e-02,    6.386740e-02
      19,   -3.770721e-02,    4.910670e-02
      20,   -2.513306e-02,    5.460953e-02
** ... 1976 like lines cut
**
********************************** E L E M E N T S ****************************
*ELEMENT, TYPE=STRI3, ELSET=kondensator_li
       1,       1,       2,       3
       2,       3,       4,       5
       3,       5,       6,       1
       4,       1,       3,       5
       5,       7,       8,       9
       6,       9,       6,       5
       7,       5,       4,       7
       8,       7,       9,       5
       9,      10,      11,      12
      10,      12,       4,      13
      11,      13,      14,      10
      12,      10,      12,      13
      13,       3,       2,      15
      14,      15,      16,      17
      15,      18,      19,      20
      16,      20,      21,      18
      17,      19,      22,      20
      18,      18,      23,      19
      19,      24,      25,      20
      20,      20,      22,      24
** ... 204 like lines cut
*ELEMENT, TYPE=STRI3, ELSET=kondensator_re
     225,      89,      88,     138
     226,     138,     139,     140
     227,     140,      84,      89
     228,      89,     138,     140
     229,     141,     142,     143
     230,     143,      84,     140
     231,     140,     139,     141
     232,     141,     143,     140
     233,     144,     145,     146
     234,     146,     139,     147
     235,     147,     148,     144
     236,     144,     146,     147
     237,     138,      88,     149
     238,     149,     150,     151
     239,     152,     153,     154
     240,     154,     142,     152
     241,     153,     155,     154
     242,     152,     156,     153
     243,     157,     158,     154
     244,     154,     155,     157
** ... 204 like lines cut
*ELEMENT, TYPE=STRI3, ELSET=Aussenraum
     449,     258,     259,     260
     450,     261,     262,     263
     451,     264,     265,     266
     452,     267,     268,     269
     453,     270,     271,     269
     454,     272,     273,     274
     455,     275,     276,     277
     456,     278,     279,     280
     457,     281,     262,     261
     458,     282,     283,     284
     459,     285,     286,     287
     460,     288,     289,     290
     461,     291,     292,     293
     462,     294,     295,     296
     463,     297,     298,     299
     464,     275,     277,     300
     465,     301,     275,     300
     466,     302,     303,     304
     467,     305,     306,     307
     468,     308,     300,     309
** ... 3382 like lines cut
**
********************************** S I D E S E T S **********************************
*ELSET, ELSET=linke_Platte_E1
      38,      41,      62,      65,      74,      77,     126,     129,    2070,    2079,
    2358,    2367,    2374,    2383,    2422,    2431
*ELSET, ELSET=linke_Platte_E2
      36,      42,      61,      67,      73,      79,     125,     131,    2072,    2078,
    2360,    2366,    2376,    2382,    2424,    2430
*SURFACE, NAME=linke_Platte
linke_Platte_E1, E1
linke_Platte_E2, E2
*ELSET, ELSET=rechte_Platte_E1
     261,     270,     313,     322,     409,     418,     426,     429,    2055,    2058,
    2103,    2106,    2135,    2138,    2439,    2442
*ELSET, ELSET=rechte_Platte_E2
     262,     268,     315,     321,     411,     417,     425,     431,    2054,    2060,
    2102,    2108,    2134,    2140,    2438,    2444
*SURFACE, NAME=rechte_Platte
rechte_Platte_E1, E1
rechte_Platte_E2, E2
**
********************************** P R O P E R T I E S ************************
*SHELL SECTION, ELSET=kondensator_li, SECTION INTEGRATION=SIMPSON, MATERIAL=Default-Steel
1.000000e+00
*SHELL SECTION, ELSET=kondensator_re, SECTION INTEGRATION=SIMPSON, MATERIAL=Default-Steel
1.000000e+00
*SHELL SECTION, ELSET=Aussenraum, SECTION INTEGRATION=SIMPSON, MATERIAL=Default-Steel
1.000000e+00
**
*END PART
**
**
**
********************************** E N D   P A R T S **********************************
**
**
********************************** A S S E M B L Y ************************************
**
*ASSEMBLY, NAME=ASSEMBLY1
**
*INSTANCE, NAME=Part-Default_1, PART=Part-Default
*END INSTANCE
**
*END ASSEMBLY
**
**
**
*MATERIAL, NAME = Default-Steel
*ELASTIC, TYPE=ISOTROPIC
2.068000e+05, 2.900000e-01
*DENSITY
7.000000e-06
*CONDUCTIVITY,TYPE=ISO
4.500000e-02
*SPECIFIC HEAT
5.000000e+02
**
**
************************************** H I S T O R Y *************************************
**
*PREPRINT
**
**************************************** S T E P 1 ***************************************
*STEP,INC=100,NAME=Default Set
**
*STATIC
1, 1, 1e-05, 1
**
**
**
**
*END STEP
