*HEADING
cubit(s/OFEM/oFEM/examples/planarCapacitor/planar_capacitor.inp): 08/22/2017: 15
version: 16.0.3
**
********************************** P A R T S **********************************
*PART, NAME=Part-Default
**
********************************** N O D E S **********************************
*NODE, NSET=ALLNODES
       1,   -3.737154e-02,   -3.485498e-02
       2,   -4.981774e-02,   -2.813536e-02
       3,   -4.986384e-02,   -4.230764e-02
       4,   -4.989260e-02,   -5.726454e-02
       5,   -3.739445e-02,   -4.912023e-02
       6,   -2.490155e-02,   -4.105282e-02
       7,   -3.741939e-02,   -6.420264e-02
       8,   -2.494711e-02,   -6.929134e-02
       9,   -2.492749e-02,   -5.475134e-02
      10,   -6.245132e-02,   -8.089969e-02
      11,   -5.000000e-02,   -1.000000e-01
      12,   -4.993198e-02,   -7.356983e-02
      13,   -6.241154e-02,   -6.421654e-02
      14,   -7.493780e-02,   -6.931393e-02
      15,   -6.234991e-02,   -3.484811e-02
      16,   -7.487762e-02,   -4.086079e-02
      17,   -6.238511e-02,   -4.900509e-02
      18,   -3.762910e-02,    6.386740e-02
      19,   -3.770721e-02,    4.910670e-02
      20,   -2.513306e-02,    5.460953e-02
** ... 1961 like lines cut
**
********************************** E L E M E N T S ****************************
*ELEMENT, TYPE=STRI3, ELSET=kondensator_li
       1,       1,       2,       3
       2,       3,       4,       5
       3,       5,       6,       1
       4,       1,       3,       5
       5,       7,       8,       9
       6,       9,       6,       5
       7,       5,       4,       7
       8,       7,       9,       5
       9,      10,      11,      12
      10,      12,       4,      13
      11,      13,      14,      10
      12,      10,      12,      13
      13,       3,       2,      15
      14,      15,      16,      17
      15,      18,      19,      20
      16,      20,      21,      18
      17,      19,      22,      20
      18,      18,      23,      19
      19,      24,      25,      20
      20,      20,      22,      24
** ... 204 like lines cut
*ELEMENT, TYPE=STRI3, ELSET=kondensator_re
     225,     126,      96,     138
     226,     138,     139,     140
     227,     140,     124,     126
     228,     126,     138,     140
     229,     141,     142,     143
     230,     143,     124,     140
     231,     140,     139,     141
     232,     141,     143,     140
     233,     144,     145,     146
     234,     146,     147,     148
     235,     148,     149,     144
     236,     144,     146,     148
     237,     150,     151,     152
     238,     152,     153,     154
     239,     155,     156,     157
     240,     157,     158,     155
     241,     156,     159,     157
     242,     155,     160,     156
     243,     161,     162,     157
     244,     157,     159,     161
** ... 204 like lines cut
*ELEMENT, TYPE=STRI3, ELSET=Aussenraum
     449,     258,     259,     260
     450,     261,     262,     263
     451,     264,     265,     266
     452,     267,     268,     269
     453,     270,     271,     269
     454,     272,     273,     274
     455,     275,     276,     277
     456,     278,     265,     264
     457,     279,     280,     281
     458,     282,     283,     284
     459,     285,     286,     287
     460,     288,     289,     290
     461,     291,     292,     293
     462,     292,     294,     293
     463,     275,     277,     295
     464,     296,     297,     298
     465,     299,     300,     301
     466,     258,     302,     259
     467,     303,     304,     302
     468,     305,     306,     307
** ... 3352 like lines cut
**
********************************** S I D E S E T S **********************************
*ELSET, ELSET=linke_Platte_E1
      38,      41,      62,      65,      74,      77,     110,     113,    2065,    2074,
    2273,    2282,    2289,    2298,    2353,    2362
*ELSET, ELSET=linke_Platte_E2
      36,      42,      61,      67,      73,      79,     109,     115,    2067,    2073,
    2275,    2281,    2291,    2297,    2355,    2361
*SURFACE, NAME=linke_Platte
linke_Platte_E1, E1
linke_Platte_E2, E2
*ELSET, ELSET=rechte_Platte_E1
     378,     381,     393,     402,     409,     418,     425,     434,    2050,    2053,
    2146,    2149,    2338,    2341,    2530,    2533
*ELSET, ELSET=rechte_Platte_E2
     377,     383,     395,     401,     411,     417,     427,     433,    2049,    2055,
    2145,    2151,    2337,    2343,    2529,    2535
*SURFACE, NAME=rechte_Platte
rechte_Platte_E1, E1
rechte_Platte_E2, E2
**
********************************** P R O P E R T I E S ************************
*SHELL SECTION, ELSET=kondensator_li, SECTION INTEGRATION=SIMPSON, MATERIAL=Default-Steel
1.000000e+00
*SHELL SECTION, ELSET=kondensator_re, SECTION INTEGRATION=SIMPSON, MATERIAL=Default-Steel
1.000000e+00
*SHELL SECTION, ELSET=Aussenraum, SECTION INTEGRATION=SIMPSON, MATERIAL=Default-Steel
1.000000e+00
**
*END PART
**
**
**
********************************** E N D   P A R T S **********************************
**
**
********************************** A S S E M B L Y ************************************
**
*ASSEMBLY, NAME=ASSEMBLY1
**
*INSTANCE, NAME=Part-Default_1, PART=Part-Default
*END INSTANCE
**
*END ASSEMBLY
**
**
**
*MATERIAL, NAME = Default-Steel
*ELASTIC, TYPE=ISOTROPIC
2.068000e+05, 2.900000e-01
*DENSITY
7.000000e-06
*CONDUCTIVITY,TYPE=ISO
4.500000e-02
*SPECIFIC HEAT
5.000000e+02
**
**
************************************** H I S T O R Y *************************************
**
*PREPRINT
**
**************************************** S T E P 1 ***************************************
*STEP,INC=100,NAME=Default Set
**
*STATIC
1, 1, 1e-05, 1
**
**
**
**
*END STEP
