*HEADING
cubit(uments/oFEM/examples/planarCapacitor/planar_capacitor.inp): 08/25/2017: 15
version: 16.3.4
**
********************************** P A R T S **********************************
*PART, NAME=Part-Default
**
********************************** N O D E S **********************************
*NODE, NSET=ALLNODES
       1,    0.000000e+00,    1.000000e-01
       2,   -1.000000e-01,    1.000000e-01
       3,   -1.000000e-01,   -1.000000e-01
       4,    0.000000e+00,   -1.000000e-01
       5,   -5.000000e-02,    1.000000e-01
       6,   -1.000000e-01,    5.000000e-02
       7,   -1.000000e-01,   -2.775558e-17
       8,   -1.000000e-01,   -5.000000e-02
       9,   -5.000000e-02,   -1.000000e-01
      10,    0.000000e+00,   -5.000000e-02
      11,    0.000000e+00,    2.775558e-17
      12,    0.000000e+00,    5.000000e-02
      13,   -5.072208e-02,   -2.875235e-02
      14,   -5.065217e-02,    2.836166e-02
      15,    1.000000e-01,    1.000000e-01
      16,    1.000000e-01,   -1.000000e-01
      17,    5.000000e-02,    1.000000e-01
      18,    5.000000e-02,   -1.000000e-01
      19,    1.000000e-01,    5.000000e-02
      20,    1.000000e-01,   -2.775558e-17
** ... 2003 like lines cut
**
********************************** E L E M E N T S ****************************
*ELEMENT, TYPE=STRI3, ELSET=kondensator_li
     689,     877,      13,     837
     690,     837,     462,     894
     691,     894,     475,     877
     692,     877,     837,     894
     693,     892,     471,     893
     694,     893,     475,     894
     695,     894,     462,     892
     696,     892,     893,     894
     697,     895,      12,     827
     698,     827,     459,     896
     699,     896,     479,     895
     700,     895,     827,     896
     701,     825,       5,     830
     702,     830,     460,     897
     703,     904,     906,     907
     704,     907,     478,     904
     705,     906,     479,     907
     706,     904,     480,     906
     707,     898,     889,     907
     708,     907,     479,     898
** ... 204 like lines cut
*ELEMENT, TYPE=STRI3, ELSET=kondensator_re
     913,     961,      18,     946
     914,     946,     492,     986
     915,     986,     497,     961
     916,     961,     946,     986
     917,     984,     502,     985
     918,     985,     497,     986
     919,     986,     492,     984
     920,     984,     985,     986
     921,     953,      17,     920
     922,     920,     484,     987
     923,     987,     495,     953
     924,     953,     920,     987
     925,     918,      23,     966
     926,     966,     498,     988
     927,     993,     994,     995
     928,     995,     480,     993
     929,     994,     483,     995
     930,     993,     488,     994
     931,     915,     905,     995
     932,     995,     483,     915
** ... 204 like lines cut
*ELEMENT, TYPE=STRI3, ELSET=Aussenraum
    1137,    1824,     756,    1827
    1138,    1827,     757,    1829
       1,      37,     112,      36
       2,     113,     112,      37
     565,     777,     445,     808
    1139,    1829,     582,    1824
    1140,    1824,    1827,    1829
    1141,    1616,     274,    1327
    1142,    1327,     599,    1830
       3,      91,      84,      24
       4,     119,      84,      91
       5,     103,     104,     120
       6,     121,     119,      92
       7,     122,     121,      93
       8,     123,     122,      94
       9,     124,     123,      95
      10,     125,     124,      96
      11,     128,     127,      99
      12,     129,     128,     100
      13,     295,     253,     252
** ... 3436 like lines cut
**
********************************** S I D E S E T S **********************************
*ELSET, ELSET=linke_Platte_E1
     745,     754,     810,     813,     826,     829,     842,     845,    1962,    1965,
    1978,    1981,    1994,    1997,    2010,    2013
*ELSET, ELSET=linke_Platte_E2
     747,     753,     809,     815,     825,     831,     841,     847,    1961,    1967,
    1977,    1983,    1993,    1999,    2009,    2015
*SURFACE, NAME=linke_Platte
linke_Platte_E1, E1
linke_Platte_E2, E2
*ELSET, ELSET=rechte_Platte_E1
    1049,    1058,    1070,    1073,    1102,    1105,    1118,    1121,    1946,    1949,
    2058,    2061,    2074,    2077,    2090,    2093
*ELSET, ELSET=rechte_Platte_E2
    1051,    1057,    1069,    1075,    1101,    1107,    1117,    1123,    1945,    1951,
    2057,    2063,    2073,    2079,    2089,    2095
*SURFACE, NAME=rechte_Platte
rechte_Platte_E1, E1
rechte_Platte_E2, E2
**
********************************** P R O P E R T I E S ************************
*SHELL SECTION, ELSET=kondensator_li, SECTION INTEGRATION=SIMPSON, MATERIAL=Default-Steel
1.000000e+00
*SHELL SECTION, ELSET=kondensator_re, SECTION INTEGRATION=SIMPSON, MATERIAL=Default-Steel
1.000000e+00
*SHELL SECTION, ELSET=Aussenraum, SECTION INTEGRATION=SIMPSON, MATERIAL=Default-Steel
1.000000e+00
**
*END PART
**
**
**
********************************** E N D   P A R T S **********************************
**
**
********************************** A S S E M B L Y ************************************
**
*ASSEMBLY, NAME=ASSEMBLY1
**
*INSTANCE, NAME=Part-Default_1, PART=Part-Default
*END INSTANCE
**
*END ASSEMBLY
**
**
**
*MATERIAL, NAME = Default-Steel
*ELASTIC, TYPE=ISOTROPIC
2.068000e+05, 2.900000e-01
*DENSITY
7.000000e-06
*CONDUCTIVITY,TYPE=ISO
4.500000e-02
*SPECIFIC HEAT
5.000000e+02
**
**
************************************** H I S T O R Y *************************************
**
*PREPRINT
**
**************************************** S T E P 1 ***************************************
*STEP,INC=100,NAME=Default Set
**
*STATIC
1, 1, 1e-05, 1
**
**
**
**
*END STEP
