*HEADING
cubit(itHub//oFEM/examples/planarCapacitor/planar_capacitor.inp): 10/20/2017: 16
version: 16.3.4
**
********************************** P A R T S **********************************
*PART, NAME=Part-Default
**
********************************** N O D E S **********************************
*NODE, NSET=ALLNODES
       1,    0.000000e+00,    1.000000e-01
       2,   -1.000000e-01,    1.000000e-01
       3,   -1.000000e-01,   -1.000000e-01
       4,    0.000000e+00,   -1.000000e-01
       5,   -5.000000e-02,    1.000000e-01
       6,   -1.000000e-01,    5.000000e-02
       7,   -1.000000e-01,   -2.775558e-17
       8,   -1.000000e-01,   -5.000000e-02
       9,   -5.000000e-02,   -1.000000e-01
      10,    0.000000e+00,   -5.000000e-02
      11,    0.000000e+00,    2.775558e-17
      12,    0.000000e+00,    5.000000e-02
      13,   -5.072208e-02,   -2.875235e-02
      14,   -5.065217e-02,    2.836166e-02
      15,    1.000000e-01,    1.000000e-01
      16,    1.000000e-01,   -1.000000e-01
      17,    5.000000e-02,    1.000000e-01
      18,    5.000000e-02,   -1.000000e-01
      19,    1.000000e-01,    5.000000e-02
      20,    1.000000e-01,   -2.775558e-17
** ... 1973 like lines cut
**
********************************** E L E M E N T S ****************************
*ELEMENT, TYPE=STRI3, ELSET=kondensator_li
     689,     863,      13,     823
     690,     823,     456,     880
     691,     880,     469,     863
     692,     863,     823,     880
     693,     878,     465,     879
     694,     879,     469,     880
     695,     880,     456,     878
     696,     878,     879,     880
     697,     881,      12,     813
     698,     813,     453,     882
     699,     882,     473,     881
     700,     881,     813,     882
     701,     811,       5,     816
     702,     816,     454,     883
     703,     890,     892,     893
     704,     893,     472,     890
     705,     892,     473,     893
     706,     890,     474,     892
     707,     884,     875,     893
     708,     893,     473,     884
** ... 204 like lines cut
*ELEMENT, TYPE=STRI3, ELSET=kondensator_re
     913,     947,      18,     932
     914,     932,     486,     972
     915,     972,     491,     947
     916,     947,     932,     972
     917,     970,     496,     971
     918,     971,     491,     972
     919,     972,     486,     970
     920,     970,     971,     972
     921,     939,      17,     906
     922,     906,     478,     973
     923,     973,     489,     939
     924,     939,     906,     973
     925,     904,      23,     952
     926,     952,     492,     974
     927,     979,     980,     981
     928,     981,     474,     979
     929,     980,     477,     981
     930,     979,     482,     980
     931,     901,     891,     981
     932,     981,     477,     901
** ... 204 like lines cut
*ELEMENT, TYPE=STRI3, ELSET=Aussenraum
    1137,    1796,    1797,    1798
    1138,    1799,     410,    1249
       1,      37,     106,      36
       2,     107,     106,      37
       3,      95,     108,      94
     565,     763,     439,     794
    1139,    1249,     572,    1800
    1140,    1800,     743,    1799
    1141,    1799,    1249,    1800
       4,      85,      84,      24
       5,     113,      84,      85
       6,      97,      98,     114
       7,     115,     113,      86
       8,     116,     115,      87
       9,     117,     116,      88
      10,     118,     117,      89
      11,     119,     118,      90
      12,     287,     285,     248
      13,      94,     122,      93
    1142,    1795,     742,    1798
** ... 3436 like lines cut
**
********************************** S I D E S E T S **********************************
*ELSET, ELSET=linke_Platte_E1
     745,     754,     810,     813,     826,     829,     842,     845,    1962,    1965,
    1978,    1981,    1994,    1997,    2010,    2013
*ELSET, ELSET=linke_Platte_E2
     747,     753,     809,     815,     825,     831,     841,     847,    1961,    1967,
    1977,    1983,    1993,    1999,    2009,    2015
*SURFACE, NAME=linke_Platte
linke_Platte_E1, E1
linke_Platte_E2, E2
*ELSET, ELSET=rechte_Platte_E1
    1049,    1058,    1070,    1073,    1102,    1105,    1118,    1121,    1930,    1933,
    2058,    2061,    2074,    2077,    2090,    2093
*ELSET, ELSET=rechte_Platte_E2
    1051,    1057,    1069,    1075,    1101,    1107,    1117,    1123,    1929,    1935,
    2057,    2063,    2073,    2079,    2089,    2095
*SURFACE, NAME=rechte_Platte
rechte_Platte_E1, E1
rechte_Platte_E2, E2
**
********************************** P R O P E R T I E S ************************
*SHELL SECTION, ELSET=kondensator_li, SECTION INTEGRATION=SIMPSON, MATERIAL=Default-Steel
1.000000e+00
*SHELL SECTION, ELSET=kondensator_re, SECTION INTEGRATION=SIMPSON, MATERIAL=Default-Steel
1.000000e+00
*SHELL SECTION, ELSET=Aussenraum, SECTION INTEGRATION=SIMPSON, MATERIAL=Default-Steel
1.000000e+00
**
*END PART
**
**
**
********************************** E N D   P A R T S **********************************
**
**
********************************** A S S E M B L Y ************************************
**
*ASSEMBLY, NAME=ASSEMBLY1
**
*INSTANCE, NAME=Part-Default_1, PART=Part-Default
*END INSTANCE
**
*END ASSEMBLY
**
**
**
*MATERIAL, NAME = Default-Steel
*ELASTIC, TYPE=ISOTROPIC
2.068000e+05, 2.900000e-01
*DENSITY
7.000000e-06
*CONDUCTIVITY,TYPE=ISO
4.500000e-02
*SPECIFIC HEAT
5.000000e+02
**
**
************************************** H I S T O R Y *************************************
**
*PREPRINT
**
**************************************** S T E P 1 ***************************************
*STEP,INC=100,NAME=Default Set
**
*STATIC
1, 1, 1e-05, 1
**
**
**
**
*END STEP
