*HEADING
cubit(ojects/OFEM/oFEM/examples/chargedSphere/chargedSphere.inp): 08/21/2017: 14
version: 16.1.3
**
********************************** P A R T S **********************************
*PART, NAME=Part-Default
**
********************************** N O D E S **********************************
*NODE, NSET=ALLNODES
       1,   -4.898587e-16,   -5.999039e-32,   -8.000000e+00
       2,   -4.898587e-16,   -5.999039e-32,    8.000000e+00
       3,   -1.836970e-15,   -2.249640e-31,   -3.000000e+01
       4,   -1.836970e-15,   -2.249640e-31,    3.000000e+01
       5,   -1.914525e+00,   -2.344617e-16,   -7.767535e+00
       6,   -3.717785e+00,   -4.552974e-16,   -7.083648e+00
       7,   -5.304981e+00,   -6.496728e-16,   -5.988086e+00
       8,   -6.583871e+00,   -8.062916e-16,   -4.544518e+00
       9,   -7.480130e+00,   -9.160517e-16,   -2.836839e+00
      10,   -7.941671e+00,   -9.725742e-16,   -9.642935e-01
      11,   -7.941671e+00,   -9.725742e-16,    9.642934e-01
      12,   -7.480130e+00,   -9.160517e-16,    2.836839e+00
      13,   -6.583871e+00,   -8.062916e-16,    4.544518e+00
      14,   -5.304981e+00,   -6.496728e-16,    5.988086e+00
      15,   -3.717785e+00,   -4.552974e-16,    7.083648e+00
      16,   -1.914525e+00,   -2.344617e-16,    7.767535e+00
      17,    1.248336e+00,    8.374946e-04,   -7.902003e+00
      18,   -6.908769e-01,    1.556294e+00,   -7.816690e+00
      19,   -6.908770e-01,   -1.556294e+00,    7.816690e+00
      20,   -2.700465e+00,    1.709315e+00,   -7.333875e+00
** ... 2059 like lines cut
**
********************************** E L E M E N T S ****************************
*ELEMENT, TYPE=C3D4, ELSET=Sphere_1
       1,     438,     439,     440,     441
       2,     442,     439,     438,     441
       3,     443,     440,     444,     441
       4,     444,     440,     445,     441
       5,     442,     444,     446,     441
       6,     447,     445,     444,     440
       7,     448,     445,     449,     441
       8,     447,     450,     451,     440
       9,     452,     451,     450,     440
      10,     452,     453,     454,     440
      11,     453,     438,     439,     440
      12,     443,     438,     440,     441
      13,     451,     449,     445,     440
      14,     455,     451,     447,     450
      15,     224,     211,     231,     456
      16,     457,     458,     453,     450
      17,     447,     451,     445,     440
      18,     459,     453,     450,     440
      19,     460,     456,     461,     462
      20,     452,     449,     451,     440
** ... 2877 like lines cut
*ELEMENT, TYPE=C3D4, ELSET=Aussenraum
    2898,     813,     814,     815,     816
    2899,     817,     818,     819,     820
    2900,     821,     822,     823,     816
    2901,     814,     824,     825,     816
    2902,     826,     827,     828,     829
    2903,     830,     831,     832,     829
    2904,     833,     834,     835,     829
    2905,     836,     828,     834,     829
    2906,     837,     838,     826,     829
    2907,     839,     835,     840,     827
    2908,     835,     834,     840,     827
    2909,     841,     842,     843,     827
    2910,     841,     842,     844,     843
    2911,     834,     828,     842,     827
    2912,     826,     845,     843,     827
    2913,     834,     828,     827,     829
    2914,     846,     847,     831,     848
    2915,     849,     850,     851,     848
    2916,     835,     851,     850,     848
    2917,     833,     831,     835,     848
** ... 8897 like lines cut
**
********************************** S I D E S E T S **********************************
*ELSET, ELSET=Erde_S1
    2943,    2959,    3013,    3110,    3123,    3213,    3249,    3468,    3534,    3723,
    3725,    3769,    4052,    4075,    4256,    4333,    4373,    4395,    4398,    4455,
    4459,    4460,    4466,    4472,    4489,    4492,    4505,    4512,    4515,    4527,
    4537,    4542,    4558,    4576,    4580,    4609,    4610,    4615,    4630,    4648,
    4654,    4661,    4665,    4668,    4677,    4702,    4712,    4716,    4723,    4731,
    4745,    4763,    4765,    4766,    4773,    4805,    4810,    4816,    4824,    4833,
    4842,    4859,    4863,    4874,    4886,    4889,    4895,    4898,    4899,    4903,
    4905,    4907,    4930,    4938,    4946,    4947,    4950,    4956,    4957,    4966,
    4968,    4973,    4974,    4979,    4980,    4986,    5007,    5010,    5012,    5026,
    5029,    5043,    5048,    5050,    5055,    5057,    5077,    5102,    5105,    5116,
    5128,    5146,    5154,    5186,    5189,    5190,    5193,    5196,    5199,    5218,
    5219,    5223,    5226,    5238,    5248,    5250,    5263,    5266,    5273,    5274,
    5301,    5306,    5310,    5311,    5318,    5320,    5332,    5342,    5378,    5395,
    5398,    5401,    5410,    5416,    5422,    5444,    5445,    5455,    5460,    5466,
    5469,    5471,    5472,    5474,    5478,    5486,    5489,    5496,    5502,    5504,
    5505,    5509,    5512,    5521,    5522,    5539,    5540,    5544,    5547,    5557,
    5558,    5583,    5595,    5597,    5601,    5612,    5621,    5631,    5654,    5656,
    5657,    5668,    5670,    5680,    5707,    5713,    5720,    5721,    5724,    5725,
    5728,    5731,    5735,    5738,    5747,    5760,    5762,    5776,    5782,    5784,
    5795,    5820,    5839,    5842,    5849,    5863,    5864,    5872,    5877,    5884,
** ... 19 like lines cut
*SURFACE, NAME=Erde
Erde_S1, S1
*ELSET, ELSET=Inner_Surf_S1
      15,      38,      51,      56,      58,      60,      67,      87,      90,      92,
      95,     137,     209,     225,     226,     238,     267,     296,     298,     340,
     372,     373,     382,     385,     392,     395,     423,     450,     451,     465,
     515,     547,     558,     594,     621,     636,     641,     645,     648,     649,
     673,     675,     677,     699,     718,     791,     884,     885,     923,     960,
     971,    1030,    1106,    1117,    1125,    1155,    1161,    1165,    1178,    1181,
    1229,    1242,    1245,    1253,    1271,    1392,    1436,    1437,    1476,    1501,
    1522,    1538,    1539,    1551,    1553,    1555,    1560,    1562,    1563,    1569,
    1570,    1572,    1575,    1585,    1586,    1595,    1596,    1597,    1599,    1602,
    1604,    1605,    1606,    1607,    1609,    1611,    1612,    1613,    1623,    1626,
    1631,    1632,    1633,    1634,    1635,    1636,    1638,    1640,    1643,    1644,
    1648,    1649,    1650,    1652,    1656,    1663,    1666,    1668,    1669,    1676,
    1677,    1682,    1686,    1691,    1693,    1697,    1698,    1705,    1706,    1710,
    1713,    1717,    1726,    1728,    1730,    1731,    1733,    1735,    1736,    1742,
    1745,    1746,    1757,    1758,    1761,    1764,    1765,    1767,    1772,    1775,
    1780,    1783,    1787,    1788,    1792,    1795,    1799,    1803,    1804,    1808,
    1809,    1810,    1811,    1814,    1815,    1816,    1817,    1825,    1826,    1827,
    1829,    1830,    1832,    1837,    1838,    1840,    1842,    1845,    1846,    1849,
    1851,    1852,    1853,    1854,    1856,    1859,    1863,    1864,    1866,    1867,
    1868,    1869,    1870,    1872,    1874,    1876,    1884,    1886,    1889,    1890,
** ... 29 like lines cut
*SURFACE, NAME=Inner_Surf
Inner_Surf_S1, S1
**
********************************** P R O P E R T I E S ************************
*SOLID SECTION, ELSET=Sphere_1, MATERIAL=Default-Steel
*SOLID SECTION, ELSET=Aussenraum, MATERIAL=Default-Steel
**
*END PART
**
**
**
********************************** E N D   P A R T S **********************************
**
**
********************************** A S S E M B L Y ************************************
**
*ASSEMBLY, NAME=ASSEMBLY1
**
*INSTANCE, NAME=Part-Default_1, PART=Part-Default
*END INSTANCE
**
*END ASSEMBLY
**
**
**
*MATERIAL, NAME = Default-Steel
*ELASTIC, TYPE=ISOTROPIC
2.068000e+05, 2.900000e-01
*DENSITY
7.000000e-06
*CONDUCTIVITY,TYPE=ISO
4.500000e-02
*SPECIFIC HEAT
5.000000e+02
**
**
************************************** H I S T O R Y *************************************
**
*PREPRINT
**
**************************************** S T E P 1 ***************************************
*STEP,INC=100,NAME=Default Set
**
*STATIC
1, 1, 1e-05, 1
**
**
**
**
*END STEP
