*HEADING
cubit(ents/GitHub/oFEM/examples/chargedSphere/chargedSphere.inp): 10/23/2017: 17
version: 16.3.4
**
********************************** P A R T S **********************************
*PART, NAME=Part-Default
**
********************************** N O D E S **********************************
*NODE, NSET=ALLNODES
       1,   -4.898587e-16,   -5.999039e-32,   -8.000000e+00
       2,   -4.898587e-16,   -5.999039e-32,    8.000000e+00
       3,   -1.836970e-15,   -2.249640e-31,   -3.000000e+01
       4,   -1.836970e-15,   -2.249640e-31,    3.000000e+01
       5,   -1.914525e+00,   -2.344617e-16,   -7.767535e+00
       6,   -3.717785e+00,   -4.552974e-16,   -7.083648e+00
       7,   -5.304981e+00,   -6.496728e-16,   -5.988086e+00
       8,   -6.583871e+00,   -8.062916e-16,   -4.544518e+00
       9,   -7.480130e+00,   -9.160517e-16,   -2.836839e+00
      10,   -7.941671e+00,   -9.725742e-16,   -9.642935e-01
      11,   -7.941671e+00,   -9.725742e-16,    9.642934e-01
      12,   -7.480130e+00,   -9.160517e-16,    2.836839e+00
      13,   -6.583871e+00,   -8.062916e-16,    4.544518e+00
      14,   -5.304981e+00,   -6.496728e-16,    5.988086e+00
      15,   -3.717785e+00,   -4.552974e-16,    7.083648e+00
      16,   -1.914525e+00,   -2.344617e-16,    7.767535e+00
      17,    1.390203e+00,    4.998531e-03,   -7.878281e+00
      18,   -6.940964e-01,    1.603898e+00,   -7.806775e+00
      19,   -6.940945e-01,   -1.603910e+00,    7.806773e+00
      20,   -2.724997e+00,    1.701867e+00,   -7.326530e+00
** ... 2048 like lines cut
**
********************************** E L E M E N T S ****************************
*ELEMENT, TYPE=C3D4, ELSET=Sphere_1
       1,     439,     440,     441,     442
       2,     144,     443,     171,     442
       3,     183,     174,     201,     442
       4,     444,     445,     446,     447
       5,     171,     448,     174,     442
       6,     449,     450,     440,     451
       7,     452,     453,     454,     451
       8,     440,     455,     456,     451
       9,     457,     439,     458,     448
      10,     459,     456,     455,     451
      11,     460,     459,     450,     451
      12,     460,     450,     454,     451
      13,     461,     462,     463,     464
      14,     465,     466,     467,     468
      15,     156,     205,     190,     469
      16,     470,     446,     471,     472
      17,     473,     474,     475,     464
      18,     476,     461,     463,     464
      19,     477,     478,     473,     464
      20,     476,     479,     480,     464
** ... 2901 like lines cut
*ELEMENT, TYPE=C3D4, ELSET=Aussenraum
    2922,     816,     817,     818,     819
    2923,     820,     821,     822,     823
    2924,     820,     821,     823,     819
    2925,     824,     825,     826,     821
    2926,     827,     828,     829,     830
    2927,     820,     831,     832,     819
    2928,     818,     825,     824,     819
    2929,     833,     832,     831,     819
    2930,     834,     831,     823,     819
    2931,     835,     836,     837,     838
    2932,     839,     840,     836,     838
    2933,     841,     842,     843,     838
    2934,     844,     841,     843,     838
    2935,     837,     845,     846,     838
    2936,     835,     846,     847,     838
    2937,     835,     847,     843,     838
    2938,     817,     823,     848,     849
    2939,     850,     851,     852,     848
    2940,     853,     848,     823,     849
    2941,     825,     821,     823,     849
** ... 8797 like lines cut
**
********************************** S I D E S E T S **********************************
*ELSET, ELSET=Erde_S1
    3037,    3092,    3096,    3098,    3158,    3439,    3458,    3566,    3648,    3688,
    3827,    3958,    4021,    4167,    4354,    4415,    4456,    4490,    4503,    4507,
    4517,    4521,    4527,    4529,    4533,    4550,    4558,    4566,    4597,    4605,
    4607,    4629,    4631,    4661,    4678,    4698,    4705,    4712,    4713,    4717,
    4719,    4725,    4730,    4739,    4748,    4750,    4751,    4758,    4759,    4777,
    4779,    4783,    4793,    4817,    4820,    4838,    4844,    4852,    4853,    4859,
    4864,    4869,    4873,    4876,    4878,    4881,    4882,    4885,    4892,    4901,
    4919,    4927,    4936,    4940,    4953,    4959,    4966,    4970,    4995,    5016,
    5020,    5026,    5032,    5042,    5047,    5051,    5052,    5066,    5067,    5071,
    5072,    5075,    5079,    5082,    5096,    5098,    5111,    5116,    5124,    5126,
    5127,    5132,    5135,    5141,    5157,    5158,    5170,    5177,    5180,    5190,
    5193,    5195,    5207,    5212,    5215,    5223,    5227,    5229,    5232,    5233,
    5240,    5250,    5255,    5257,    5271,    5279,    5281,    5283,    5284,    5291,
    5302,    5321,    5327,    5335,    5350,    5371,    5374,    5391,    5404,    5412,
    5430,    5442,    5446,    5463,    5464,    5465,    5468,    5471,    5500,    5503,
    5506,    5521,    5529,    5530,    5539,    5542,    5557,    5580,    5586,    5588,
    5594,    5597,    5598,    5600,    5605,    5612,    5613,    5634,    5636,    5656,
    5665,    5671,    5672,    5678,    5680,    5681,    5683,    5687,    5690,    5693,
    5695,    5696,    5707,    5716,    5737,    5739,    5740,    5754,    5755,    5764,
    5765,    5768,    5769,    5771,    5777,    5778,    5781,    5794,    5798,    5803,
** ... 19 like lines cut
*SURFACE, NAME=Erde
Erde_S1, S1
*ELSET, ELSET=Inner_Surf_S1
       3,      15,      46,      78,      87,      92,     115,     118,     137,     175,
     199,     229,     246,     252,     281,     296,     298,     314,     316,     322,
     326,     372,     373,     374,     385,     394,     450,     452,     456,     465,
     494,     530,     569,     573,     621,     641,     645,     649,     677,     699,
     743,     817,     857,     872,     876,     881,     884,     885,     894,     897,
     919,     922,     923,     930,     971,    1030,    1065,    1106,    1125,    1161,
    1162,    1165,    1166,    1178,    1201,    1227,    1242,    1253,    1271,    1284,
    1377,    1476,    1500,    1550,    1551,    1554,    1555,    1556,    1560,    1561,
    1562,    1568,    1569,    1573,    1576,    1580,    1582,    1583,    1584,    1588,
    1593,    1594,    1598,    1599,    1600,    1601,    1602,    1603,    1604,    1608,
    1609,    1610,    1614,    1615,    1617,    1618,    1621,    1628,    1629,    1630,
    1634,    1638,    1639,    1640,    1641,    1643,    1648,    1649,    1654,    1655,
    1656,    1660,    1669,    1670,    1677,    1681,    1685,    1689,    1691,    1696,
    1698,    1702,    1703,    1704,    1707,    1709,    1712,    1719,    1723,    1733,
    1734,    1736,    1737,    1739,    1740,    1741,    1746,    1752,    1758,    1759,
    1762,    1763,    1764,    1769,    1772,    1773,    1775,    1783,    1784,    1791,
    1792,    1796,    1801,    1802,    1804,    1807,    1809,    1816,    1819,    1829,
    1832,    1833,    1834,    1835,    1836,    1841,    1842,    1849,    1850,    1851,
    1855,    1856,    1857,    1861,    1862,    1864,    1871,    1874,    1881,    1884,
    1885,    1886,    1889,    1890,    1896,    1899,    1900,    1901,    1902,    1905,
** ... 29 like lines cut
*SURFACE, NAME=Inner_Surf
Inner_Surf_S1, S1
**
********************************** P R O P E R T I E S ************************
*SOLID SECTION, ELSET=Sphere_1, MATERIAL=Default-Steel
*SOLID SECTION, ELSET=Aussenraum, MATERIAL=Default-Steel
**
*END PART
**
**
**
********************************** E N D   P A R T S **********************************
**
**
********************************** A S S E M B L Y ************************************
**
*ASSEMBLY, NAME=ASSEMBLY1
**
*INSTANCE, NAME=Part-Default_1, PART=Part-Default
*END INSTANCE
**
*END ASSEMBLY
**
**
**
*MATERIAL, NAME = Default-Steel
*ELASTIC, TYPE=ISOTROPIC
2.068000e+05, 2.900000e-01
*DENSITY
7.000000e-06
*CONDUCTIVITY,TYPE=ISO
4.500000e-02
*SPECIFIC HEAT
5.000000e+02
**
**
************************************** H I S T O R Y *************************************
**
*PREPRINT
**
**************************************** S T E P 1 ***************************************
*STEP,INC=100,NAME=Default Set
**
*STATIC
1, 1, 1e-05, 1
**
**
**
**
*END STEP
