*HEADING
cubit(ojects/OFEM/oFEM/examples/chargedSphere/chargedSphere.inp): 04/13/2018: 13
version: 16.3.4
**
********************************** P A R T S **********************************
*PART, NAME=Part-Default
**
********************************** N O D E S **********************************
*NODE, NSET=ALLNODES
       1,   -4.898587e-16,   -5.999039e-32,   -8.000000e+00
       2,   -4.898587e-16,   -5.999039e-32,    8.000000e+00
       3,   -1.836970e-15,   -2.249640e-31,   -3.000000e+01
       4,   -1.836970e-15,   -2.249640e-31,    3.000000e+01
       5,   -1.914525e+00,   -2.344617e-16,   -7.767535e+00
       6,   -3.717785e+00,   -4.552974e-16,   -7.083648e+00
       7,   -5.304981e+00,   -6.496728e-16,   -5.988086e+00
       8,   -6.583871e+00,   -8.062916e-16,   -4.544518e+00
       9,   -7.480130e+00,   -9.160517e-16,   -2.836839e+00
      10,   -7.941671e+00,   -9.725742e-16,   -9.642935e-01
      11,   -7.941671e+00,   -9.725742e-16,    9.642934e-01
      12,   -7.480130e+00,   -9.160517e-16,    2.836839e+00
      13,   -6.583871e+00,   -8.062916e-16,    4.544518e+00
      14,   -5.304981e+00,   -6.496728e-16,    5.988086e+00
      15,   -3.717785e+00,   -4.552974e-16,    7.083648e+00
      16,   -1.914525e+00,   -2.344617e-16,    7.767535e+00
      17,    1.390203e+00,    4.998531e-03,   -7.878281e+00
      18,   -6.940964e-01,    1.603898e+00,   -7.806775e+00
      19,   -6.940945e-01,   -1.603910e+00,    7.806773e+00
      20,   -2.724997e+00,    1.701867e+00,   -7.326530e+00
** ... 2035 like lines cut
**
********************************** E L E M E N T S ****************************
*ELEMENT, TYPE=C3D4, ELSET=Sphere_1
       1,     439,     440,     441,     442
       2,     443,     439,     441,     442
       3,     443,     444,     445,     442
       4,     446,     447,     448,     449
       5,     450,     445,     451,     442
       6,     452,     453,     451,     442
       7,     454,     453,     440,     442
       8,     455,     456,     457,     458
       9,     459,     460,     455,     458
      10,     455,     460,     456,     458
      11,     447,     457,     461,     458
      12,     462,     447,     461,     458
      13,     463,     460,     464,     458
      14,     465,     466,     467,     468
      15,     156,     205,     190,     469
      16,     470,     471,     472,     458
      17,     473,     474,     475,     476
      18,     477,     475,     478,     476
      19,     479,     474,     480,     476
      20,     473,     480,     474,     476
** ... 2855 like lines cut
*ELEMENT, TYPE=C3D4, ELSET=Aussenraum
    2876,     809,     810,     811,     812
    2877,     809,     813,     810,     812
    2878,     814,     815,     816,     812
    2879,     814,     809,     815,     812
    2880,     813,     817,     810,     812
    2881,     818,     819,     820,     821
    2882,     218,     822,     231,     823
    2883,     820,     824,     825,     821
    2884,     820,     819,     826,     821
    2885,     820,     827,     826,     819
    2886,     828,     829,     830,     831
    2887,     832,     829,     833,     831
    2888,     834,     835,     836,     837
    2889,     838,     833,     839,     840
    2890,     841,     842,     830,     831
    2891,     211,     843,     844,     845
    2892,     846,     847,     842,     831
    2893,     848,     849,     850,     851
    2894,     849,     852,     853,     854
    2895,     849,     853,     851,     854
** ... 8773 like lines cut
**
********************************** S I D E S E T S **********************************
*ELSET, ELSET=Erde_S1
    2991,    3046,    3050,    3052,    3112,    3393,    3412,    3520,    3602,    3642,
    3781,    3912,    3975,    4121,    4308,    4310,    4369,    4410,    4444,    4457,
    4461,    4471,    4475,    4481,    4483,    4487,    4504,    4512,    4520,    4551,
    4559,    4561,    4583,    4585,    4615,    4632,    4652,    4659,    4663,    4666,
    4667,    4669,    4671,    4673,    4679,    4684,    4702,    4704,    4705,    4713,
    4731,    4733,    4737,    4747,    4771,    4774,    4792,    4798,    4806,    4807,
    4813,    4818,    4823,    4827,    4830,    4832,    4835,    4836,    4839,    4846,
    4855,    4873,    4881,    4894,    4907,    4913,    4920,    4924,    4949,    4970,
    4974,    4980,    4986,    5001,    5005,    5006,    5020,    5021,    5025,    5026,
    5029,    5033,    5036,    5050,    5052,    5065,    5070,    5078,    5080,    5081,
    5086,    5089,    5112,    5124,    5134,    5144,    5147,    5149,    5161,    5166,
    5169,    5177,    5181,    5183,    5186,    5187,    5194,    5204,    5209,    5211,
    5225,    5233,    5235,    5237,    5238,    5245,    5256,    5275,    5281,    5289,
    5304,    5325,    5328,    5345,    5358,    5366,    5384,    5396,    5400,    5403,
    5418,    5419,    5422,    5425,    5454,    5457,    5460,    5475,    5483,    5484,
    5493,    5496,    5511,    5534,    5540,    5542,    5548,    5551,    5552,    5554,
    5559,    5566,    5567,    5588,    5590,    5610,    5619,    5625,    5626,    5632,
    5634,    5635,    5637,    5641,    5644,    5647,    5649,    5650,    5661,    5670,
    5691,    5693,    5694,    5708,    5709,    5716,    5718,    5719,    5722,    5723,
    5725,    5731,    5732,    5748,    5751,    5752,    5757,    5760,    5762,    5763,
** ... 19 like lines cut
*SURFACE, NAME=Erde
Erde_S1, S1
*ELSET, ELSET=Inner_Surf_S1
      15,      46,      78,      87,      92,     115,     118,     137,     175,     199,
     229,     246,     252,     281,     296,     298,     314,     316,     322,     326,
     372,     373,     385,     394,     450,     452,     456,     465,     494,     530,
     569,     621,     641,     645,     649,     677,     699,     743,     817,     857,
     858,     872,     876,     881,     884,     885,     888,     894,     898,     923,
     930,     971,    1030,    1065,    1106,    1108,    1125,    1161,    1162,    1165,
    1166,    1178,    1201,    1227,    1242,    1253,    1271,    1284,    1377,    1476,
    1500,    1510,    1538,    1550,    1551,    1554,    1555,    1556,    1560,    1561,
    1562,    1568,    1569,    1573,    1576,    1580,    1582,    1583,    1584,    1588,
    1593,    1594,    1598,    1599,    1600,    1601,    1602,    1603,    1604,    1608,
    1609,    1610,    1614,    1615,    1617,    1618,    1621,    1626,    1627,    1628,
    1629,    1630,    1634,    1638,    1639,    1640,    1641,    1643,    1648,    1649,
    1653,    1654,    1655,    1656,    1660,    1669,    1670,    1677,    1681,    1685,
    1689,    1691,    1696,    1698,    1703,    1704,    1707,    1709,    1712,    1715,
    1719,    1723,    1733,    1734,    1736,    1737,    1739,    1740,    1741,    1746,
    1752,    1758,    1759,    1762,    1763,    1764,    1768,    1769,    1772,    1773,
    1775,    1783,    1784,    1792,    1796,    1801,    1802,    1804,    1807,    1809,
    1816,    1819,    1829,    1832,    1833,    1834,    1835,    1836,    1841,    1842,
    1849,    1850,    1851,    1855,    1856,    1857,    1861,    1862,    1864,    1871,
    1874,    1880,    1881,    1884,    1885,    1886,    1889,    1890,    1896,    1899,
** ... 29 like lines cut
*SURFACE, NAME=Inner_Surf
Inner_Surf_S1, S1
**
********************************** P R O P E R T I E S ************************
*SOLID SECTION, ELSET=Sphere_1, MATERIAL=Default-Steel
*SOLID SECTION, ELSET=Aussenraum, MATERIAL=Default-Steel
**
*END PART
**
**
**
********************************** E N D   P A R T S **********************************
**
**
********************************** A S S E M B L Y ************************************
**
*ASSEMBLY, NAME=ASSEMBLY1
**
*INSTANCE, NAME=Part-Default_1, PART=Part-Default
*END INSTANCE
**
*END ASSEMBLY
**
**
**
*MATERIAL, NAME = Default-Steel
*ELASTIC, TYPE=ISOTROPIC
2.068000e+05, 2.900000e-01
*DENSITY
7.000000e-06
*CONDUCTIVITY,TYPE=ISO
4.500000e-02
*SPECIFIC HEAT
5.000000e+02
**
**
************************************** H I S T O R Y *************************************
**
*PREPRINT
**
**************************************** S T E P 1 ***************************************
*STEP,INC=100,NAME=Default Set
**
*STATIC
1, 1, 1e-05, 1
**
**
**
**
*END STEP
